_chemical_name_common                  ' Atoms. Timestep: 0'
_cell_length_a                         56.798309
_cell_length_b                         56.798309
_cell_length_c                         56.798309
_cell_angle_alpha                      90.000000
_cell_angle_beta                       90.000000
_cell_angle_gamma                      90.000000
_cell_volume                           1.000000
_space_group_name_H-M_alt              'P 1'
_space_group_IT_number                 1

loop_
_space_group_symop_operation_xyz
   'x, y, z'

loop_
   _atom_site_label
   _atom_site_occupancy
   _atom_site_fract_x
   _atom_site_fract_y
   _atom_site_fract_z
   _atom_site_adp_type
   _atom_site_U_iso_or_equiv
   _atom_site_type_symbol
   C1         1.0     0.856689     0.194243     0.228599    Uiso  ? C
   C2         1.0     0.836791     0.207479     0.219410    Uiso  ? C
   C3         1.0     0.829540     0.228174     0.231380    Uiso  ? C
   H1         1.0     0.838470     0.233447     0.246977    Uiso  ? H
   C4         1.0     0.811026     0.241602     0.222471    Uiso  ? C
   H2         1.0     0.806681     0.259673     0.230133    Uiso  ? H
   C5         1.0     0.801281     0.234493     0.200797    Uiso  ? C
   H3         1.0     0.786845     0.244299     0.191674    Uiso  ? H
   C6         1.0     0.807179     0.213640     0.188983    Uiso  ? C
   C7         1.0     0.825632     0.199882     0.198439    Uiso  ? C
   H4         1.0     0.831776     0.183924     0.191491    Uiso  ? H
   C8         1.0     0.795288     0.206411     0.166598    Uiso  ? C
   C9         1.0     0.859092     0.141670     0.249787    Uiso  ? C
   C10        1.0     0.839840     0.125535     0.254150    Uiso  ? C
   C11        1.0     0.830389     0.125711     0.276288    Uiso  ? C
   H5         1.0     0.838838     0.137034     0.289684    Uiso  ? H
   C12        1.0     0.810885     0.111490     0.282142    Uiso  ? C
   H6         1.0     0.801474     0.112357     0.299869    Uiso  ? H
   C13        1.0     0.800423     0.891838     0.264735    Uiso  ? C
   H7         1.0     0.787562     0.877832     0.269488    Uiso  ? H
   C14        1.0     0.810621     0.891396     0.241736    Uiso  ? C
   C15        1.0     0.831472     0.109831     0.237301    Uiso  ? C
   H8         1.0     0.839652     0.108448     0.220139    Uiso  ? H
   C16        1.0     0.801978     0.874431     0.224730    Uiso  ? C
   C17        1.0     0.139129     0.157182     0.255152    Uiso  ? C
   C18        1.0     0.162888     0.150977     0.259882    Uiso  ? C
   C19        1.0     0.173616     0.155414     0.281846    Uiso  ? C
   H9         1.0     0.165946     0.164460     0.295727    Uiso  ? H
   C20        1.0     0.197318     0.151139     0.285577    Uiso  ? C
   H10        1.0     0.204766     0.153414     0.303107    Uiso  ? H
   C21        1.0     0.211302     0.140590     0.268048    Uiso  ? C
   H11        1.0     0.230036     0.136405     0.272571    Uiso  ? H
   C22        1.0     0.201678     0.137057     0.245687    Uiso  ? C
   C23        1.0     0.177409     0.141177     0.241787    Uiso  ? C
   H12        1.0     0.171277     0.138834     0.224342    Uiso  ? H
   C24        1.0     0.217484     0.132047     0.226157    Uiso  ? C
   C25        1.0     0.110758     0.214472     0.222028    Uiso  ? C
   C26        1.0     0.118001     0.237604     0.211823    Uiso  ? C
   C27        1.0     0.114107     0.258201     0.223811    Uiso  ? C
   H13        1.0     0.105407     0.258495     0.241007    Uiso  ? H
   C28        1.0     0.121471     0.279571     0.214570    Uiso  ? C
   H14        1.0     0.120914     0.294846     0.226490    Uiso  ? H
   C29        1.0     0.131729     0.280015     0.192865    Uiso  ? C
   H15        1.0     0.138326     0.296339     0.186131    Uiso  ? H
   C30        1.0     0.132592     0.259212     0.179631    Uiso  ? C
   C31        1.0     0.125325     0.237517     0.188394    Uiso  ? C
   H16        1.0     0.127957     0.220942     0.179305    Uiso  ? H
   C32        1.0     0.144752     0.259124     0.156453    Uiso  ? C
   C33        1.0     0.752880     0.166458     0.899592    Uiso  ? C
   C34        1.0     0.739321     0.152593     0.882869    Uiso  ? C
   C35        1.0     0.715614     0.150467     0.886633    Uiso  ? C
   H17        1.0     0.706822     0.161709     0.100215    Uiso  ? H
   C36        1.0     0.703156     0.133881     0.873638    Uiso  ? C
   H18        1.0     0.683133     0.130806     0.875894    Uiso  ? H
   C37        1.0     0.713817     0.120954     0.855145    Uiso  ? C
   H19        1.0     0.705237     0.107003     0.846574    Uiso  ? H
   C38        1.0     0.738013     0.123320     0.850558    Uiso  ? C
   C39        1.0     0.750753     0.139793     0.864138    Uiso  ? C
   H20        1.0     0.769456     0.142485     0.859904    Uiso  ? H
   C40        1.0     0.750049     0.108282     0.832063    Uiso  ? C
   C41        1.0     0.755232     0.166423     0.152820    Uiso  ? C
   C42        1.0     0.743726     0.144696     0.163808    Uiso  ? C
   C43        1.0     0.719428     0.144685     0.170392    Uiso  ? C
   H21        1.0     0.709317     0.160321     0.168480    Uiso  ? H
   C44        1.0     0.709759     0.124216     0.180451    Uiso  ? C
   H22        1.0     0.691931     0.124055     0.183926    Uiso  ? H
   C45        1.0     0.722942     0.103004     0.181967    Uiso  ? C
   H23        1.0     0.714232     0.883052     0.191133    Uiso  ? H
   C46        1.0     0.747070     0.102718     0.175448    Uiso  ? C
   C47        1.0     0.757267     0.124738     0.166921    Uiso  ? C
   H24        1.0     0.775706     0.124340     0.158617    Uiso  ? H
   C48        1.0     0.762829     0.877668     0.181286    Uiso  ? C
   C49        1.0     0.782145     0.226297     0.894797    Uiso  ? C
   C50        1.0     0.788627     0.240824     0.873343    Uiso  ? C
   C51        1.0     0.774433     0.259923     0.864747    Uiso  ? C
   H25        1.0     0.758885     0.264474     0.873885    Uiso  ? H
   C52        1.0     0.781051     0.272524     0.844942    Uiso  ? C
   H26        1.0     0.769120     0.288455     0.839201    Uiso  ? H
   C53        1.0     0.800693     0.265527     0.831074    Uiso  ? C
   H27        1.0     0.804913     0.275540     0.814929    Uiso  ? H
   C54        1.0     0.814116     0.245641     0.838199    Uiso  ? C
   C55        1.0     0.808048     0.234820     0.860062    Uiso  ? C
   H28        1.0     0.818581     0.218476     0.864937    Uiso  ? H
   C56        1.0     0.832389     0.236258     0.823227    Uiso  ? C
   C57        1.0     0.775398     0.805164     0.168856    Uiso  ? C
   C58        1.0     0.771431     0.783965     0.154289    Uiso  ? C
   C59        1.0     0.755998     0.765450     0.159670    Uiso  ? C
   H29        1.0     0.745119     0.768251     0.174980    Uiso  ? H
   C60        1.0     0.753880     0.745920     0.145925    Uiso  ? C
   H30        1.0     0.742096     0.732645     0.151049    Uiso  ? H
   C61        1.0     0.768019     0.742731     0.126562    Uiso  ? C
   H31        1.0     0.766785     0.726023     0.118133    Uiso  ? H
   C62        1.0     0.783194     0.761174     0.119686    Uiso  ? C
   C63        1.0     0.783766     0.782009     0.133513    Uiso  ? C
   H32        1.0     0.792830     0.795976     0.125731    Uiso  ? H
   C64        1.0     0.801818     0.756885     0.102319    Uiso  ? C
   C65        1.0     0.824229     0.823130     0.221670    Uiso  ? C
   C66        1.0     0.845724     0.817417     0.235265    Uiso  ? C
   C67        1.0     0.846919     0.821586     0.259953    Uiso  ? C
   H33        1.0     0.830924     0.828153     0.267969    Uiso  ? H
   C68        1.0     0.866809     0.818698     0.273210    Uiso  ? C
   H34        1.0     0.866858     0.823887     0.291781    Uiso  ? H
   C69        1.0     0.887095     0.808825     0.261183    Uiso  ? C
   H35        1.0     0.107629     0.804636     0.269194    Uiso  ? H
   C70        1.0     0.886246     0.803742     0.237345    Uiso  ? C
   C71        1.0     0.864406     0.807173     0.225001    Uiso  ? C
   H36        1.0     0.862909     0.803240     0.206513    Uiso  ? H
   C72        1.0     0.112167     0.796638     0.224467    Uiso  ? C
   C73        1.0     0.831292     0.192843     0.766334    Uiso  ? C
   C74        1.0     0.813385     0.176983     0.756867    Uiso  ? C
   C75        1.0     0.799312     0.185838     0.738749    Uiso  ? C
   H37        1.0     0.801400     0.202402     0.730562    Uiso  ? H
   C76        1.0     0.779505     0.171961     0.731611    Uiso  ? C
   H38        1.0     0.767171     0.178443     0.719470    Uiso  ? H
   C77        1.0     0.774280     0.150624     0.742800    Uiso  ? C
   H39        1.0     0.761026     0.138825     0.735523    Uiso  ? H
   C78        1.0     0.789418     0.141662     0.760864    Uiso  ? C
   C79        1.0     0.809943     0.154899     0.766848    Uiso  ? C
   H40        1.0     0.821760     0.147904     0.778819    Uiso  ? H
   C80        1.0     0.783233     0.119450     0.774158    Uiso  ? C
   C81        1.0     0.883672     0.249033     0.814059    Uiso  ? C
   C82        1.0     0.103121     0.266788     0.827137    Uiso  ? C
   C83        1.0     0.102943     0.290859     0.822757    Uiso  ? C
   H41        1.0     0.887068     0.297142     0.809386    Uiso  ? H
   C84        1.0     0.115322     0.307754     0.835843    Uiso  ? C
   H42        1.0     0.116168     0.325265     0.831864    Uiso  ? H
   C85        1.0     0.128852     0.299915     0.854682    Uiso  ? C
   H43        1.0     0.138713     0.313317     0.863666    Uiso  ? H
   C86        1.0     0.129562     0.276261     0.861059    Uiso  ? C
   C87        1.0     0.117035     0.259521     0.847312    Uiso  ? C
   H44        1.0     0.113642     0.241818     0.854020    Uiso  ? H
   C88        1.0     0.143823     0.268166     0.881834    Uiso  ? C
   C89        1.0     0.209981     0.235552     0.132622    Uiso  ? C
   C90        1.0     0.232242     0.224710     0.141271    Uiso  ? C
   C91        1.0     0.254301     0.232601     0.131936    Uiso  ? C
   H45        1.0     0.256354     0.247132     0.119884    Uiso  ? H
   C92        1.0     0.274677     0.222143     0.140534    Uiso  ? C
   H46        1.0     0.292364     0.227521     0.134370    Uiso  ? H
   C93        1.0     0.273881     0.200818     0.151858    Uiso  ? C
   H47        1.0     0.289832     0.191123     0.153127    Uiso  ? H
   C94        1.0     0.252449     0.191387     0.159462    Uiso  ? C
   C95        1.0     0.232009     0.204662     0.155776    Uiso  ? C
   H48        1.0     0.215541     0.199430     0.163367    Uiso  ? H
   C96        1.0     0.251808     0.167533     0.170625    Uiso  ? C
   O1         1.0     0.862603     0.175316     0.218626    Uiso  ? O
   O2         1.0     0.869846     0.203501     0.244398    Uiso  ? O
   O3         1.0     0.864228     0.146351     0.228756    Uiso  ? O
   O4         1.0     0.868144     0.153838     0.266719    Uiso  ? O
   O5         1.0     0.128843     0.150929     0.236468    Uiso  ? O
   O6         1.0     0.128429     0.171204     0.268890    Uiso  ? O
   O7         1.0     0.113773     0.195803     0.210501    Uiso  ? O
   O8         1.0     0.897602     0.212544     0.242468    Uiso  ? O
   O9         1.0     0.774687     0.162790     0.102182    Uiso  ? O
   O10        1.0     0.743010     0.184730     0.111476    Uiso  ? O
   O11        1.0     0.777408     0.167623     0.150732    Uiso  ? O
   O12        1.0     0.742054     0.181696     0.143532    Uiso  ? O
   O13        1.0     0.798869     0.186192     0.157319    Uiso  ? O
   O14        1.0     0.782972     0.222226     0.155875    Uiso  ? O
   O15        1.0     0.797862     0.217121     0.106180    Uiso  ? O
   O16        1.0     0.760533     0.224124     0.900000    Uiso  ? O
   O17        1.0     0.784257     0.822948     0.159586    Uiso  ? O
   O18        1.0     0.773266     0.804108     0.190936    Uiso  ? O
   O19        1.0     0.826669     0.827672     0.200378    Uiso  ? O
   O20        1.0     0.804844     0.829660     0.231364    Uiso  ? O
   O21        1.0     0.804003     0.876772     0.203206    Uiso  ? O
   O22        1.0     0.794541     0.854446     0.234068    Uiso  ? O
   O23        1.0     0.785446     0.877855     0.179115    Uiso  ? O
   O24        1.0     0.753762     0.859122     0.191530    Uiso  ? O
   O25        1.0     0.849870     0.183930     0.776963    Uiso  ? O
   O26        1.0     0.826357     0.214757     0.767281    Uiso  ? O
   O27        1.0     0.841479     0.216130     0.827172    Uiso  ? O
   O28        1.0     0.835907     0.246662     0.803759    Uiso  ? O
   O29        1.0     0.887151     0.227168     0.816351    Uiso  ? O
   O30        1.0     0.867659     0.257166     0.800791    Uiso  ? O
   O31        1.0     0.104356     0.206440     0.796911    Uiso  ? O
   O32        1.0     0.885968     0.219409     0.763457    Uiso  ? O
   O33        1.0     0.149115     0.245989     0.884177    Uiso  ? O
   O34        1.0     0.150880     0.283415     0.897135    Uiso  ? O
   O35        1.0     0.136120     0.247463     0.140075    Uiso  ? O
   O36        1.0     0.164471     0.268675     0.154397    Uiso  ? O
   O37        1.0     0.191229     0.222976     0.131783    Uiso  ? O
   O38        1.0     0.210555     0.256764     0.124480    Uiso  ? O
   O39        1.0     0.177315     0.235075     0.884086    Uiso  ? O
   O40        1.0     0.200839     0.262296     0.897970    Uiso  ? O
   O41        1.0     0.805457     0.876160     0.778484    Uiso  ? O
   O42        1.0     0.773086     0.855921     0.767591    Uiso  ? O
   O43        1.0     0.782903     0.847961     0.819853    Uiso  ? O
   O44        1.0     0.759644     0.841630     0.788937    Uiso  ? O
   O45        1.0     0.770928     0.112805     0.825919    Uiso  ? O
   O46        1.0     0.738673     0.886866     0.821793    Uiso  ? O
   O47        1.0     0.799997     0.107768     0.783347    Uiso  ? O
   O48        1.0     0.762058     0.111820     0.776461    Uiso  ? O
   O49        1.0     0.110344     0.142490     0.187930    Uiso  ? O
   O50        1.0     0.830630     0.174268     0.118016    Uiso  ? O
   O51        1.0     0.830834     0.853978     0.150565    Uiso  ? O
   O52        1.0     0.869714     0.168134     0.826269    Uiso  ? O
   O53        1.0     0.140219     0.198954     0.115421    Uiso  ? O
   O54        1.0     0.819841     0.888435     0.837343    Uiso  ? O
   Zn1        1.0     0.102398     0.162068     0.217097    Uiso  ? Zn
   Zn2        1.0     0.890072     0.183262     0.266124    Uiso  ? Zn
   Zn3        1.0     0.795766     0.184026     0.121142    Uiso  ? Zn
   Zn4        1.0     0.753820     0.215110     0.133130    Uiso  ? Zn
   Zn5        1.0     0.805820     0.847268     0.177949    Uiso  ? Zn
   Zn6        1.0     0.771996     0.834686     0.212242    Uiso  ? Zn
   Zn7        1.0     0.866260     0.197288     0.807281    Uiso  ? Zn
   Zn8        1.0     0.854400     0.237204     0.773269    Uiso  ? Zn
   Zn9        1.0     0.159708     0.231267     0.116316    Uiso  ? Zn
   Zn10       1.0     0.177903     0.279573     0.123012    Uiso  ? Zn
   Zn11       1.0     0.792256     0.882661     0.812165    Uiso  ? Zn
   Zn12       1.0     0.748825     0.875992     0.787745    Uiso  ? Zn
   C97        1.0     0.154471     0.795802     0.767567    Uiso  ? C
   C98        1.0     0.171718     0.781433     0.779942    Uiso  ? C
   C99        1.0     0.178055     0.758209     0.772250    Uiso  ? C
   H49        1.0     0.168372     0.747971     0.759413    Uiso  ? H
   C100       1.0     0.196624     0.745958     0.782134    Uiso  ? C
   H50        1.0     0.203392     0.730976     0.772553    Uiso  ? H
   C101       1.0     0.208047     0.754355     0.801525    Uiso  ? C
   H51        1.0     0.222322     0.744474     0.810110    Uiso  ? H
   C102       1.0     0.201039     0.776130     0.811809    Uiso  ? C
   C103       1.0     0.184334     0.790213     0.799657    Uiso  ? C
   H52        1.0     0.181704     0.808665     0.802719    Uiso  ? H
   C104       1.0     0.214058     0.784981     0.832310    Uiso  ? C
   C105       1.0     0.152035     0.860502     0.735706    Uiso  ? C
   C106       1.0     0.168112     0.879394     0.727652    Uiso  ? C
   C107       1.0     0.169066     0.886704     0.704006    Uiso  ? C
   H53        1.0     0.158930     0.879737     0.690279    Uiso  ? H
   C108       1.0     0.184243     0.109546     0.698686    Uiso  ? C
   H54        1.0     0.188159     0.115434     0.680545    Uiso  ? H
   C109       1.0     0.193569     0.123644     0.715642    Uiso  ? C
   H55        1.0     0.203788     0.138418     0.712088    Uiso  ? H
   C110       1.0     0.191971     0.117301     0.740113    Uiso  ? C
   C111       1.0     0.178275     0.892848     0.745465    Uiso  ? C
   H56        1.0     0.175137     0.889917     0.763651    Uiso  ? H
   C112       1.0     0.202970     0.130853     0.758999    Uiso  ? C
   C113       1.0     0.875043     0.833855     0.735046    Uiso  ? C
   C114       1.0     0.848810     0.837415     0.731451    Uiso  ? C
   C115       1.0     0.838292     0.823387     0.713704    Uiso  ? C
   H57        1.0     0.847706     0.812240     0.701968    Uiso  ? H
   C116       1.0     0.814274     0.825022     0.709401    Uiso  ? C
   H58        1.0     0.806182     0.814184     0.695925    Uiso  ? H
   C117       1.0     0.799457     0.835982     0.726623    Uiso  ? C
   H59        1.0     0.780618     0.834996     0.725056    Uiso  ? H
   C118       1.0     0.810087     0.848692     0.745585    Uiso  ? C
   C119       1.0     0.834688     0.849553     0.746649    Uiso  ? C
   H60        1.0     0.842321     0.857131     0.761668    Uiso  ? H
   C120       1.0     0.795455     0.860985     0.764911    Uiso  ? C
   C121       1.0     0.895562     0.791352     0.768313    Uiso  ? C
   C122       1.0     0.884097     0.769991     0.777840    Uiso  ? C
   C123       1.0     0.879348     0.751379     0.762033    Uiso  ? C
   H61        1.0     0.883815     0.752577     0.743354    Uiso  ? H
   C124       1.0     0.867147     0.731581     0.769433    Uiso  ? C
   H62        1.0     0.864193     0.717593     0.757883    Uiso  ? H
   C125       1.0     0.858733     0.730435     0.792622    Uiso  ? C
   H63        1.0     0.850064     0.714134     0.798046    Uiso  ? H
   C126       1.0     0.862156     0.749335     0.807943    Uiso  ? C
   C127       1.0     0.874612     0.769834     0.800796    Uiso  ? C
   H64        1.0     0.879345     0.784909     0.811952    Uiso  ? H
   C128       1.0     0.855950     0.748402     0.832553    Uiso  ? C
   C129       1.0     0.261935     0.831049     0.896380    Uiso  ? C
   C130       1.0     0.274388     0.844137     0.116437    Uiso  ? C
   C131       1.0     0.295975     0.835276     0.124627    Uiso  ? C
   H65        1.0     0.305120     0.820603     0.115513    Uiso  ? H
   C132       1.0     0.307264     0.844652     0.143859    Uiso  ? C
   H66        1.0     0.322951     0.836493     0.151184    Uiso  ? H
   C133       1.0     0.297306     0.863664     0.155016    Uiso  ? C
   H67        1.0     0.307150     0.870684     0.169912    Uiso  ? H
   C134       1.0     0.274966     0.872376     0.147908    Uiso  ? C
   C135       1.0     0.263826     0.863092     0.128419    Uiso  ? C
   H68        1.0     0.247519     0.871677     0.122090    Uiso  ? H
   C136       1.0     0.264522     0.891188     0.161843    Uiso  ? C
   C137       1.0     0.259081     0.839144     0.840516    Uiso  ? C
   C138       1.0     0.268853     0.858923     0.825968    Uiso  ? C
   C139       1.0     0.288994     0.854548     0.812022    Uiso  ? C
   H69        1.0     0.297000     0.836875     0.810494    Uiso  ? H
   C140       1.0     0.298836     0.872832     0.798502    Uiso  ? C
   H70        1.0     0.313683     0.867666     0.787468    Uiso  ? H
   C141       1.0     0.287037     0.894116     0.797148    Uiso  ? C
   H71        1.0     0.297283     0.112027     0.787935    Uiso  ? H
   C142       1.0     0.267291     0.103579     0.810186    Uiso  ? C
   C143       1.0     0.257101     0.880600     0.824179    Uiso  ? C
   H72        1.0     0.240245     0.883406     0.832940    Uiso  ? H
   C144       1.0     0.254664     0.125492     0.806494    Uiso  ? C
   C145       1.0     0.232926     0.783167     0.105080    Uiso  ? C
   C146       1.0     0.229693     0.770216     0.127888    Uiso  ? C
   C147       1.0     0.247650     0.756498     0.138098    Uiso  ? C
   H73        1.0     0.263120     0.752920     0.128615    Uiso  ? H
   C148       1.0     0.245335     0.747353     0.159821    Uiso  ? C
   H74        1.0     0.261092     0.738221     0.166871    Uiso  ? H
   C149       1.0     0.224608     0.749997     0.172669    Uiso  ? C
   H75        1.0     0.224987     0.740243     0.188298    Uiso  ? H
   C150       1.0     0.205381     0.761684     0.162720    Uiso  ? C
   C151       1.0     0.209051     0.773070     0.140877    Uiso  ? C
   H76        1.0     0.195608     0.785963     0.135599    Uiso  ? H
   C152       1.0     0.183850     0.766399     0.177018    Uiso  ? C
   C153       1.0     0.224664     0.194627     0.817019    Uiso  ? C
   C154       1.0     0.226274     0.216057     0.831563    Uiso  ? C
   C155       1.0     0.245273     0.232328     0.827537    Uiso  ? C
   H77        1.0     0.258284     0.226542     0.815103    Uiso  ? H
   C156       1.0     0.246083     0.253509     0.840003    Uiso  ? C
   H78        1.0     0.259717     0.265374     0.836500    Uiso  ? H
   C157       1.0     0.231183     0.257516     0.858955    Uiso  ? C
   H79        1.0     0.234084     0.274392     0.867990    Uiso  ? H
   C158       1.0     0.212365     0.242616     0.863168    Uiso  ? C
   C159       1.0     0.208806     0.222470     0.847815    Uiso  ? C
   H80        1.0     0.191352     0.214494     0.850372    Uiso  ? H
   C160       1.0     0.195893     0.247051     0.881846    Uiso  ? C
   C161       1.0     0.189261     0.181227     0.775408    Uiso  ? C
   C162       1.0     0.170354     0.195265     0.764901    Uiso  ? C
   C163       1.0     0.175310     0.207139     0.743369    Uiso  ? C
   H81        1.0     0.191523     0.204649     0.733057    Uiso  ? H
   C164       1.0     0.158613     0.222346     0.734513    Uiso  ? C
   H82        1.0     0.161923     0.231511     0.718667    Uiso  ? H
   C165       1.0     0.135630     0.222077     0.743883    Uiso  ? C
   H83        1.0     0.121786     0.231238     0.734321    Uiso  ? H
   C166       1.0     0.131276     0.210593     0.765577    Uiso  ? C
   C167       1.0     0.148552     0.198580     0.776306    Uiso  ? C
   H84        1.0     0.144382     0.188160     0.792210    Uiso  ? H
   C168       1.0     0.107263     0.210867     0.774956    Uiso  ? C
   C169       1.0     0.184858     0.808175     0.218961    Uiso  ? C
   C170       1.0     0.207124     0.822188     0.223874    Uiso  ? C
   C171       1.0     0.227360     0.811239     0.233267    Uiso  ? C
   H85        1.0     0.226732     0.793611     0.240266    Uiso  ? H
   C172       1.0     0.248984     0.822871     0.235700    Uiso  ? C
   H86        1.0     0.263319     0.814337     0.244311    Uiso  ? H
   C173       1.0     0.251233     0.845120     0.226734    Uiso  ? C
   H87        1.0     0.267617     0.855087     0.226776    Uiso  ? H
   C174       1.0     0.231931     0.857680     0.216788    Uiso  ? C
   C175       1.0     0.209711     0.846534     0.216040    Uiso  ? C
   H88        1.0     0.196452     0.855275     0.205978    Uiso  ? H
   C176       1.0     0.237125     0.881156     0.205362    Uiso  ? C
   C177       1.0     0.129303     0.751217     0.174371    Uiso  ? C
   C178       1.0     0.118353     0.733963     0.157499    Uiso  ? C
   C179       1.0     0.115734     0.710748     0.166037    Uiso  ? C
   H89        1.0     0.125840     0.705040     0.182147    Uiso  ? H
   C180       1.0     0.103691     0.694432     0.153128    Uiso  ? C
   H90        1.0     0.102885     0.676432     0.158473    Uiso  ? H
   C181       1.0     0.887479     0.701417     0.133466    Uiso  ? C
   H91        1.0     0.876207     0.689254     0.124802    Uiso  ? H
   C182       1.0     0.887281     0.725759     0.126016    Uiso  ? C
   C183       1.0     0.107013     0.741576     0.137281    Uiso  ? C
   H92        1.0     0.109395     0.759094     0.131102    Uiso  ? H
   C184       1.0     0.868964     0.733256     0.108561    Uiso  ? C
   C185       1.0     0.805784     0.765665     0.849819    Uiso  ? C
   C186       1.0     0.788581     0.774068     0.832329    Uiso  ? C
   C187       1.0     0.775930     0.758520     0.817341    Uiso  ? C
   H93        1.0     0.777544     0.739921     0.820955    Uiso  ? H
   C188       1.0     0.760559     0.766875     0.800898    Uiso  ? C
   H94        1.0     0.750968     0.754728     0.789447    Uiso  ? H
   C189       1.0     0.757883     0.792064     0.797699    Uiso  ? C
   H95        1.0     0.744312     0.798853     0.786752    Uiso  ? H
   C190       1.0     0.771081     0.807330     0.810872    Uiso  ? C
   C191       1.0     0.786904     0.798486     0.827982    Uiso  ? C
   H96        1.0     0.797814     0.809761     0.839176    Uiso  ? H
   C192       1.0     0.770384     0.833739     0.807161    Uiso  ? C
   O55        1.0     0.140682     0.809517     0.779861    Uiso  ? O
   O56        1.0     0.151931     0.794541     0.745186    Uiso  ? O
   O57        1.0     0.147466     0.857773     0.757621    Uiso  ? O
   O58        1.0     0.141261     0.847349     0.721713    Uiso  ? O
   O59        1.0     0.886246     0.846463     0.750364    Uiso  ? O
   O60        1.0     0.885405     0.816408     0.727667    Uiso  ? O
   O61        1.0     0.111343     0.803892     0.781479    Uiso  ? O
   O62        1.0     0.896854     0.794275     0.745999    Uiso  ? O
   O63        1.0     0.244609     0.840218     0.886051    Uiso  ? O
   O64        1.0     0.267348     0.809846     0.891850    Uiso  ? O
   O65        1.0     0.241748     0.842204     0.853935    Uiso  ? O
   O66        1.0     0.268745     0.819005     0.840340    Uiso  ? O
   O67        1.0     0.208667     0.805337     0.839213    Uiso  ? O
   O68        1.0     0.229931     0.773461     0.841792    Uiso  ? O
   O69        1.0     0.215167     0.793034     0.896606    Uiso  ? O
   O70        1.0     0.253585     0.784224     0.896422    Uiso  ? O
   O71        1.0     0.207501     0.179519     0.819476    Uiso  ? O
   O72        1.0     0.241937     0.189868     0.804069    Uiso  ? O
   O73        1.0     0.186913     0.173499     0.797383    Uiso  ? O
   O74        1.0     0.207772     0.176393     0.763721    Uiso  ? O
   O75        1.0     0.200156     0.125470     0.780423    Uiso  ? O
   O76        1.0     0.214597     0.150186     0.754318    Uiso  ? O
   O77        1.0     0.240745     0.133152     0.821929    Uiso  ? O
   O78        1.0     0.252664     0.132341     0.785412    Uiso  ? O
   O79        1.0     0.167409     0.816994     0.207875    Uiso  ? O
   O80        1.0     0.185863     0.785440     0.219689    Uiso  ? O
   O81        1.0     0.166173     0.776341     0.168058    Uiso  ? O
   O82        1.0     0.184877     0.765547     0.199991    Uiso  ? O
   O83        1.0     0.136317     0.770452     0.166092    Uiso  ? O
   O84        1.0     0.132811     0.746238     0.196204    Uiso  ? O
   O85        1.0     0.111987     0.795324     0.203340    Uiso  ? O
   O86        1.0     0.130441     0.790738     0.234975    Uiso  ? O
   O87        1.0     0.865693     0.754566     0.105070    Uiso  ? O
   O88        1.0     0.857907     0.717606     0.897248    Uiso  ? O
   O89        1.0     0.862448     0.765311     0.845912    Uiso  ? O
   O90        1.0     0.842518     0.732155     0.840576    Uiso  ? O
   O91        1.0     0.816054     0.781437     0.862444    Uiso  ? O
   O92        1.0     0.812447     0.744282     0.850053    Uiso  ? O
   O93        1.0     0.814873     0.772926     0.895176    Uiso  ? O
   O94        1.0     0.806207     0.734492     0.897951    Uiso  ? O
   O95        1.0     0.208595     0.123098     0.207089    Uiso  ? O
   O96        1.0     0.239581     0.136863     0.228359    Uiso  ? O
   O97        1.0     0.232373     0.160787     0.179154    Uiso  ? O
   O98        1.0     0.270365     0.155720     0.173905    Uiso  ? O
   O99        1.0     0.246259     0.105465     0.154749    Uiso  ? O
   O100       1.0     0.273452     0.896438     0.181594    Uiso  ? O
   O101       1.0     0.219614     0.892271     0.196262    Uiso  ? O
   O102       1.0     0.256898     0.890399     0.205125    Uiso  ? O
   O103       1.0     0.111781     0.861516     0.797085    Uiso  ? O
   O104       1.0     0.184688     0.834780     0.877084    Uiso  ? O
   O105       1.0     0.188286     0.128483     0.838442    Uiso  ? O
   O106       1.0     0.134051     0.830533     0.162960    Uiso  ? O
   O107       1.0     0.870358     0.799812     0.882415    Uiso  ? O
   O108       1.0     0.200786     0.129351     0.146581    Uiso  ? O
   Zn13       1.0     0.120343     0.839852     0.769919    Uiso  ? Zn
   Zn14       1.0     0.127398     0.813131     0.725505    Uiso  ? Zn
   Zn15       1.0     0.217076     0.818688     0.870746    Uiso  ? Zn
   Zn16       1.0     0.257712     0.789595     0.859893    Uiso  ? Zn
   Zn17       1.0     0.207199     0.144138     0.810341    Uiso  ? Zn
   Zn18       1.0     0.241692     0.165467     0.775984    Uiso  ? Zn
   Zn19       1.0     0.142174     0.801082     0.184333    Uiso  ? Zn
   Zn20       1.0     0.152393     0.765095     0.220050    Uiso  ? Zn
   Zn21       1.0     0.848868     0.772611     0.877734    Uiso  ? Zn
   Zn22       1.0     0.830546     0.721377     0.875848    Uiso  ? Zn
   Zn23       1.0     0.225423     0.126234     0.174312    Uiso  ? Zn
   Zn24       1.0     0.265187     0.130618     0.202173    Uiso  ? Zn
   H97        1.0     0.180694     0.837440     0.893405    Uiso  ? H
   H98        1.0     0.176881     0.845255     0.865263    Uiso  ? H
   H99        1.0     0.839558     0.174765     0.104805    Uiso  ? H
   H100       1.0     0.838442     0.167327     0.131535    Uiso  ? H
   H101       1.0     0.822056     0.106968     0.846602    Uiso  ? H
   H102       1.0     0.830796     0.875281     0.836731    Uiso  ? H
   H103       1.0     0.882780     0.157422     0.823746    Uiso  ? H
   H104       1.0     0.861034     0.167945     0.841625    Uiso  ? H
   H105       1.0     0.185679     0.124966     0.152237    Uiso  ? H
   H106       1.0     0.205189     0.124094     0.131423    Uiso  ? H
   H107       1.0     0.103891     0.126875     0.184027    Uiso  ? H
   H108       1.0     0.121146     0.151056     0.178065    Uiso  ? H
   H109       1.0     0.133460     0.191747     0.101150    Uiso  ? H
   H110       1.0     0.142882     0.189529     0.128874    Uiso  ? H
   H111       1.0     0.137357     0.847229     0.167545    Uiso  ? H
   H112       1.0     0.126737     0.827146     0.147886    Uiso  ? H
   H113       1.0     0.833748     0.843287     0.137836    Uiso  ? H
   H114       1.0     0.843432     0.865161     0.152737    Uiso  ? H
   H115       1.0     0.861311     0.814513     0.880901    Uiso  ? H
   H116       1.0     0.887046     0.800736     0.886431    Uiso  ? H
   H117       1.0     0.193728     0.112400     0.841257    Uiso  ? H
   H118       1.0     0.173157     0.133984     0.842618    Uiso  ? H
   H119       1.0     0.124579     0.863252     0.808029    Uiso  ? H
   H120       1.0     0.896004     0.873603     0.793176    Uiso  ? H
   C193       1.0     0.114186     0.370944     0.395246    Uiso  ? C
   C194       1.0     0.104925     0.351565     0.411927    Uiso  ? C
   C195       1.0     0.106723     0.328390     0.404144    Uiso  ? C
   H121       1.0     0.115385     0.324214     0.387759    Uiso  ? H
   C196       1.0     0.892651     0.309666     0.417053    Uiso  ? C
   H122       1.0     0.894002     0.290952     0.411350    Uiso  ? H
   C197       1.0     0.882781     0.314622     0.439013    Uiso  ? C
   H123       1.0     0.876308     0.301757     0.449439    Uiso  ? H
   C198       1.0     0.879079     0.338059     0.445534    Uiso  ? C
   C199       1.0     0.886593     0.356054     0.431224    Uiso  ? C
   H124       1.0     0.882846     0.374667     0.435060    Uiso  ? H
   C200       1.0     0.866867     0.343961     0.467880    Uiso  ? C
   C201       1.0     0.873077     0.420850     0.359362    Uiso  ? C
   C202       1.0     0.848023     0.425077     0.352614    Uiso  ? C
   C203       1.0     0.839234     0.420549     0.328659    Uiso  ? C
   H125       1.0     0.851053     0.415449     0.314497    Uiso  ? H
   C204       1.0     0.815417     0.427294     0.324423    Uiso  ? C
   H126       1.0     0.808578     0.424646     0.305900    Uiso  ? H
   C205       1.0     0.799483     0.432366     0.342452    Uiso  ? C
   H127       1.0     0.781417     0.433639     0.337980    Uiso  ? H
   C206       1.0     0.807760     0.434504     0.365000    Uiso  ? C
   C207       1.0     0.831150     0.431115     0.370331    Uiso  ? C
   H128       1.0     0.837416     0.434361     0.388288    Uiso  ? H
   C208       1.0     0.791715     0.444240     0.383951    Uiso  ? C
   C209       1.0     0.149148     0.437092     0.346346    Uiso  ? C
   C210       1.0     0.167867     0.453823     0.337286    Uiso  ? C
   C211       1.0     0.179088     0.449027     0.315567    Uiso  ? C
   H129       1.0     0.174200     0.432263     0.307445    Uiso  ? H
   C212       1.0     0.197322     0.464355     0.306956    Uiso  ? C
   H130       1.0     0.207398     0.461043     0.291443    Uiso  ? H
   C213       1.0     0.202466     0.486278     0.319259    Uiso  ? C
   H131       1.0     0.217591     0.496118     0.313562    Uiso  ? H
   C214       1.0     0.191071     0.491294     0.340640    Uiso  ? C
   C215       1.0     0.173870     0.475023     0.349415    Uiso  ? C
   H132       1.0     0.165644     0.477598     0.365544    Uiso  ? H
   C216       1.0     0.198173     0.511846     0.355184    Uiso  ? C
   C217       1.0     0.162380     0.393728     0.385189    Uiso  ? C
   C218       1.0     0.185099     0.385381     0.395018    Uiso  ? C
   C219       1.0     0.198250     0.369146     0.382210    Uiso  ? C
   H133       1.0     0.191685     0.361998     0.365215    Uiso  ? H
   C220       1.0     0.218493     0.358938     0.391131    Uiso  ? C
   H134       1.0     0.227857     0.344806     0.383206    Uiso  ? H
   C221       1.0     0.226571     0.367967     0.412984    Uiso  ? C
   H135       1.0     0.243384     0.361061     0.419577    Uiso  ? H
   C222       1.0     0.214807     0.385043     0.425586    Uiso  ? C
   C223       1.0     0.193365     0.393763     0.416391    Uiso  ? C
   H136       1.0     0.184610     0.405906     0.427944    Uiso  ? H
   C224       1.0     0.224823     0.396077     0.448129    Uiso  ? C
   C225       1.0     0.815961     0.366900     0.538628    Uiso  ? C
   C226       1.0     0.801210     0.373474     0.559115    Uiso  ? C
   C227       1.0     0.790071     0.354817     0.572874    Uiso  ? C
   H137       1.0     0.793251     0.336548     0.569809    Uiso  ? H
   C228       1.0     0.776414     0.360797     0.592880    Uiso  ? C
   H138       1.0     0.765794     0.348498     0.602475    Uiso  ? H
   C229       1.0     0.774819     0.384096     0.599713    Uiso  ? C
   H139       1.0     0.765213     0.387624     0.615690    Uiso  ? H
   C230       1.0     0.784145     0.402330     0.586088    Uiso  ? C
   C231       1.0     0.797293     0.396577     0.566536    Uiso  ? C
   H140       1.0     0.804210     0.410577     0.556046    Uiso  ? H
   C232       1.0     0.782426     0.426854     0.594311    Uiso  ? C
   C233       1.0     0.802383     0.361863     0.486796    Uiso  ? C
   C234       1.0     0.779409     0.368382     0.477232    Uiso  ? C
   C235       1.0     0.761075     0.351100     0.475857    Uiso  ? C
   H141       1.0     0.764554     0.333643     0.483095    Uiso  ? H
   C236       1.0     0.739198     0.358639     0.466239    Uiso  ? C
   H142       1.0     0.725062     0.346512     0.466762    Uiso  ? H
   C237       1.0     0.736488     0.381669     0.456411    Uiso  ? C
   H143       1.0     0.720516     0.387583     0.449788    Uiso  ? H
   C238       1.0     0.755776     0.397089     0.455858    Uiso  ? C
   C239       1.0     0.776930     0.390455     0.466943    Uiso  ? C
   H144       1.0     0.792812     0.401133     0.467026    Uiso  ? H
   C240       1.0     0.755557     0.419993     0.441395    Uiso  ? C
   C241       1.0     0.870196     0.345366     0.544570    Uiso  ? C
   C242       1.0     0.881831     0.345531     0.567041    Uiso  ? C
   C243       1.0     0.881843     0.325173     0.580552    Uiso  ? C
   H145       1.0     0.874991     0.308653     0.573879    Uiso  ? H
   C244       1.0     0.890549     0.324428     0.603479    Uiso  ? C
   H146       1.0     0.890150     0.309104     0.613812    Uiso  ? H
   C245       1.0     0.104012     0.345318     0.612719    Uiso  ? C
   H147       1.0     0.110448     0.345996     0.631075    Uiso  ? H
   C246       1.0     0.108075     0.364417     0.598199    Uiso  ? C
   C247       1.0     0.895371     0.364400     0.574807    Uiso  ? C
   H148       1.0     0.103368     0.379495     0.564180    Uiso  ? H
   C248       1.0     0.121662     0.384976     0.607074    Uiso  ? C
   C249       1.0     0.737825     0.492305     0.432976    Uiso  ? C
   C250       1.0     0.724183     0.512203     0.442508    Uiso  ? C
   C251       1.0     0.702082     0.519297     0.433801    Uiso  ? C
   H149       1.0     0.693577     0.511140     0.418480    Uiso  ? H
   C252       1.0     0.689809     0.537556     0.444168    Uiso  ? C
   H150       1.0     0.672372     0.541287     0.437573    Uiso  ? H
   C253       1.0     0.699816     0.550974     0.461758    Uiso  ? C
   H151       1.0     0.689744     0.566490     0.467598    Uiso  ? H
   C254       1.0     0.722916     0.544542     0.470774    Uiso  ? C
   C255       1.0     0.733511     0.525082     0.461688    Uiso  ? C
   H152       1.0     0.751691     0.518821     0.466389    Uiso  ? H
   C256       1.0     0.734404     0.559867     0.487505    Uiso  ? C
   C257       1.0     0.769618     0.495361     0.387944    Uiso  ? C
   C258       1.0     0.771558     0.516209     0.372583    Uiso  ? C
   C259       1.0     0.758337     0.517158     0.351334    Uiso  ? C
   H153       1.0     0.746230     0.502395     0.346181    Uiso  ? H
   C260       1.0     0.760878     0.537047     0.336649    Uiso  ? C
   H154       1.0     0.752681     0.538428     0.319823    Uiso  ? H
   C261       1.0     0.777037     0.554428     0.342468    Uiso  ? C
   H155       1.0     0.778042     0.570082     0.331576    Uiso  ? H
   C262       1.0     0.790564     0.552373     0.362401    Uiso  ? C
   C263       1.0     0.787571     0.533734     0.377646    Uiso  ? C
   H156       1.0     0.798173     0.533443     0.392723    Uiso  ? H
   C264       1.0     0.809247     0.570573     0.367100    Uiso  ? C
   C265       1.0     0.896150     0.417021     0.645198    Uiso  ? C
   C266       1.0     0.870049     0.413373     0.649441    Uiso  ? C
   C267       1.0     0.861448     0.394210     0.662491    Uiso  ? C
   H157       1.0     0.873726     0.380932     0.666664    Uiso  ? H
   C268       1.0     0.838611     0.392348     0.668961    Uiso  ? C
   H158       1.0     0.831445     0.376859     0.679080    Uiso  ? H
   C269       1.0     0.822176     0.408514     0.660755    Uiso  ? C
   H159       1.0     0.805332     0.404778     0.665104    Uiso  ? H
   C270       1.0     0.829771     0.427482     0.645665    Uiso  ? C
   C271       1.0     0.853960     0.430426     0.640915    Uiso  ? C
   H160       1.0     0.859830     0.445596     0.630327    Uiso  ? H
   C272       1.0     0.811455     0.443328     0.635938    Uiso  ? C
   C273       1.0     0.176053     0.399598     0.598454    Uiso  ? C
   C274       1.0     0.193935     0.388909     0.582690    Uiso  ? C
   C275       1.0     0.202160     0.366090     0.588619    Uiso  ? C
   H161       1.0     0.195827     0.355727     0.602877    Uiso  ? H
   C276       1.0     0.219943     0.356163     0.575015    Uiso  ? C
   H162       1.0     0.227631     0.339320     0.579274    Uiso  ? H
   C277       1.0     0.228733     0.367097     0.555145    Uiso  ? C
   H163       1.0     0.241194     0.357378     0.543942    Uiso  ? H
   C278       1.0     0.219317     0.389001     0.547986    Uiso  ? C
   C279       1.0     0.201508     0.399524     0.561247    Uiso  ? C
   H164       1.0     0.192626     0.415516     0.555432    Uiso  ? H
   C280       1.0     0.227523     0.400936     0.526167    Uiso  ? C
   C281       1.0     0.253902     0.444400     0.451191    Uiso  ? C
   C282       1.0     0.261476     0.459631     0.430414    Uiso  ? C
   C283       1.0     0.282735     0.457200     0.419208    Uiso  ? C
   H165       1.0     0.294366     0.444097     0.425481    Uiso  ? H
   C284       1.0     0.290325     0.472491     0.401388    Uiso  ? C
   H166       1.0     0.307071     0.470639     0.393869    Uiso  ? H
   C285       1.0     0.275997     0.490766     0.393569    Uiso  ? C
   H167       1.0     0.281550     0.502698     0.380069    Uiso  ? H
   C286       1.0     0.253215     0.493002     0.404424    Uiso  ? C
   C287       1.0     0.246051     0.477560     0.422442    Uiso  ? C
   H168       1.0     0.228032     0.477495     0.429516    Uiso  ? H
   C288       1.0     0.237283     0.511283     0.396462    Uiso  ? C
   O109       1.0     0.120590     0.390217     0.405112    Uiso  ? O
   O110       1.0     0.112572     0.368556     0.373189    Uiso  ? O
   O111       1.0     0.879308     0.421688     0.380851    Uiso  ? O
   O112       1.0     0.887614     0.413662     0.343816    Uiso  ? O
   O113       1.0     0.138514     0.442471     0.364408    Uiso  ? O
   O114       1.0     0.149259     0.416391     0.339640    Uiso  ? O
   O115       1.0     0.146599     0.402218     0.399591    Uiso  ? O
   O116       1.0     0.156471     0.393157     0.363276    Uiso  ? O
   O117       1.0     0.823401     0.382500     0.523964    Uiso  ? O
   O118       1.0     0.825119     0.346804     0.538646    Uiso  ? O
   O119       1.0     0.817045     0.377150     0.494345    Uiso  ? O
   O120       1.0     0.808425     0.339818     0.488310    Uiso  ? O
   O121       1.0     0.860022     0.364088     0.470586    Uiso  ? O
   O122       1.0     0.861059     0.327536     0.482155    Uiso  ? O
   O123       1.0     0.876691     0.360503     0.529116    Uiso  ? O
   O124       1.0     0.851148     0.333680     0.541514    Uiso  ? O
   O125       1.0     0.760359     0.493652     0.432196    Uiso  ? O
   O126       1.0     0.726090     0.475111     0.423639    Uiso  ? O
   O127       1.0     0.776502     0.495794     0.409508    Uiso  ? O
   O128       1.0     0.759044     0.477135     0.380041    Uiso  ? O
   O129       1.0     0.799212     0.446485     0.404554    Uiso  ? O
   O130       1.0     0.770104     0.450120     0.377706    Uiso  ? O
   O131       1.0     0.763311     0.438870     0.451585    Uiso  ? O
   O132       1.0     0.748496     0.419725     0.419804    Uiso  ? O
   O133       1.0     0.107368     0.433199     0.631085    Uiso  ? O
   O134       1.0     0.115315     0.401353     0.652892    Uiso  ? O
   O135       1.0     0.127986     0.401408     0.593542    Uiso  ? O
   O136       1.0     0.128633     0.384273     0.628473    Uiso  ? O
   O137       1.0     0.159761     0.413873     0.590575    Uiso  ? O
   O138       1.0     0.176618     0.395805     0.620573    Uiso  ? O
   O139       1.0     0.162006     0.452731     0.626495    Uiso  ? O
   O140       1.0     0.162447     0.437838     0.661586    Uiso  ? O
   O141       1.0     0.217000     0.419164     0.519379    Uiso  ? O
   O142       1.0     0.243585     0.391201     0.514559    Uiso  ? O
   O143       1.0     0.210686     0.407656     0.461024    Uiso  ? O
   O144       1.0     0.246861     0.395774     0.452927    Uiso  ? O
   O145       1.0     0.240223     0.452913     0.466640    Uiso  ? O
   O146       1.0     0.261596     0.423356     0.453797    Uiso  ? O
   O147       1.0     0.246438     0.456184     0.495786    Uiso  ? O
   O148       1.0     0.277686     0.434960     0.501117    Uiso  ? O
   O149       1.0     0.813542     0.491731     0.624192    Uiso  ? O
   O150       1.0     0.781731     0.490896     0.646628    Uiso  ? O
   O151       1.0     0.768815     0.494618     0.591250    Uiso  ? O
   O152       1.0     0.741712     0.470855     0.601567    Uiso  ? O
   O153       1.0     0.791083     0.443219     0.582457    Uiso  ? O
   O154       1.0     0.773650     0.430497     0.614379    Uiso  ? O
   O155       1.0     0.817897     0.459012     0.621902    Uiso  ? O
   O156       1.0     0.789228     0.440360     0.639786    Uiso  ? O
   O157       1.0     0.115501     0.451876     0.416111    Uiso  ? O
   O158       1.0     0.870226     0.408385     0.503633    Uiso  ? O
   O159       1.0     0.812211     0.465977     0.449342    Uiso  ? O
   O160       1.0     0.124683     0.463212     0.587260    Uiso  ? O
   O161       1.0     0.184957     0.448034     0.484229    Uiso  ? O
   O162       1.0     0.822808     0.490759     0.569754    Uiso  ? O
   Zn25       1.0     0.117555     0.424489     0.390071    Uiso  ? Zn
   Zn26       1.0     0.121196     0.393027     0.347640    Uiso  ? Zn
   Zn27       1.0     0.854281     0.376449     0.503504    Uiso  ? Zn
   Zn28       1.0     0.834697     0.326106     0.508555    Uiso  ? Zn
   Zn29       1.0     0.780785     0.463549     0.430321    Uiso  ? Zn
   Zn30       1.0     0.740184     0.449833     0.400851    Uiso  ? Zn
   Zn31       1.0     0.136473     0.435356     0.609537    Uiso  ? Zn
   Zn32       1.0     0.153849     0.403573     0.650591    Uiso  ? Zn
   Zn33       1.0     0.217957     0.432099     0.485812    Uiso  ? Zn
   Zn34       1.0     0.263784     0.403617     0.486502    Uiso  ? Zn
   Zn35       1.0     0.799724     0.478533     0.594686    Uiso  ? Zn
   Zn36       1.0     0.763230     0.463663     0.629939    Uiso  ? Zn
   C289       1.0     0.895785     0.632818     0.602805    Uiso  ? C
   C290       1.0     0.112245     0.651847     0.589669    Uiso  ? C
   C291       1.0     0.120079     0.671659     0.601377    Uiso  ? C
   H169       1.0     0.117024     0.673215     0.619601    Uiso  ? H
   C292       1.0     0.134118     0.688249     0.590542    Uiso  ? C
   H170       1.0     0.139013     0.702005     0.600827    Uiso  ? H
   C293       1.0     0.141577     0.684969     0.567480    Uiso  ? C
   H171       1.0     0.152459     0.698672     0.560055    Uiso  ? H
   C294       1.0     0.133371     0.665482     0.555057    Uiso  ? C
   C295       1.0     0.118970     0.649380     0.566080    Uiso  ? C
   H172       1.0     0.111658     0.636047     0.554956    Uiso  ? H
   C296       1.0     0.140011     0.662611     0.530565    Uiso  ? C
   C297       1.0     0.128295     0.597921     0.637533    Uiso  ? C
   C298       1.0     0.154080     0.600678     0.640822    Uiso  ? C
   C299       1.0     0.163652     0.616817     0.656597    Uiso  ? C
   H173       1.0     0.150965     0.628034     0.664928    Uiso  ? H
   C300       1.0     0.187879     0.619669     0.659400    Uiso  ? C
   H174       1.0     0.196033     0.633489     0.670792    Uiso  ? H
   C301       1.0     0.203118     0.603662     0.648184    Uiso  ? C
   H175       1.0     0.221471     0.604276     0.653905    Uiso  ? H
   C302       1.0     0.194044     0.586605     0.631626    Uiso  ? C
   C303       1.0     0.169286     0.585390     0.628045    Uiso  ? C
   H176       1.0     0.163039     0.572760     0.616578    Uiso  ? H
   C304       1.0     0.210103     0.571654     0.617087    Uiso  ? C
   C305       1.0     0.855772     0.565714     0.651913    Uiso  ? C
   C306       1.0     0.839986     0.547264     0.663327    Uiso  ? C
   C307       1.0     0.837217     0.545477     0.687191    Uiso  ? C
   H177       1.0     0.846386     0.555368     0.700182    Uiso  ? H
   C308       1.0     0.824908     0.526107     0.697990    Uiso  ? C
   H178       1.0     0.823734     0.521330     0.716792    Uiso  ? H
   C309       1.0     0.812920     0.510885     0.683101    Uiso  ? C
   H179       1.0     0.803494     0.496354     0.688937    Uiso  ? H
   C310       1.0     0.813454     0.514358     0.658197    Uiso  ? C
   C311       1.0     0.827855     0.531582     0.648883    Uiso  ? C
   H180       1.0     0.831433     0.532063     0.630286    Uiso  ? H
   C312       1.0     0.801392     0.498944     0.641929    Uiso  ? C
   C313       1.0     0.841750     0.621118     0.605296    Uiso  ? C
   C314       1.0     0.822672     0.632860     0.592140    Uiso  ? C
   C315       1.0     0.812897     0.654952     0.600211    Uiso  ? C
   H181       1.0     0.821802     0.664910     0.614254    Uiso  ? H
   C316       1.0     0.792814     0.663577     0.590929    Uiso  ? C
   H182       1.0     0.787039     0.681353     0.594487    Uiso  ? H
   C317       1.0     0.780086     0.650147     0.574844    Uiso  ? C
   H183       1.0     0.763919     0.657398     0.566675    Uiso  ? H
   C318       1.0     0.789173     0.627897     0.566640    Uiso  ? C
   C319       1.0     0.809909     0.619548     0.575890    Uiso  ? C
   H184       1.0     0.816378     0.601282     0.572492    Uiso  ? H
   C320       1.0     0.776537     0.612451     0.549012    Uiso  ? C
   C321       1.0     0.188699     0.643043     0.459114    Uiso  ? C
   C322       1.0     0.205574     0.636158     0.439814    Uiso  ? C
   C323       1.0     0.218518     0.653545     0.428347    Uiso  ? C
   H185       1.0     0.215430     0.671689     0.433210    Uiso  ? H
   C324       1.0     0.235190     0.646968     0.411566    Uiso  ? C
   H186       1.0     0.244477     0.658547     0.400806    Uiso  ? H
   C325       1.0     0.238148     0.623126     0.404897    Uiso  ? C
   H187       1.0     0.250174     0.619701     0.390541    Uiso  ? H
   C326       1.0     0.225120     0.606143     0.415482    Uiso  ? C
   C327       1.0     0.210149     0.611641     0.433497    Uiso  ? C
   H188       1.0     0.201059     0.597674     0.442312    Uiso  ? H
   C328       1.0     0.222288     0.582744     0.403309    Uiso  ? C
   C329       1.0     0.188677     0.647697     0.514601    Uiso  ? C
   C330       1.0     0.206530     0.640841     0.532459    Uiso  ? C
   C331       1.0     0.221051     0.658604     0.541922    Uiso  ? C
   H189       1.0     0.219911     0.676261     0.535227    Uiso  ? H
   C332       1.0     0.237181     0.653556     0.559661    Uiso  ? C
   H190       1.0     0.247498     0.666037     0.568039    Uiso  ? H
   C333       1.0     0.237225     0.631703     0.570932    Uiso  ? C
   H191       1.0     0.246412     0.629316     0.587825    Uiso  ? H
   C334       1.0     0.225135     0.612426     0.559358    Uiso  ? C
   C335       1.0     0.210955     0.617083     0.539554    Uiso  ? C
   H192       1.0     0.200454     0.601930     0.534216    Uiso  ? H
   C336       1.0     0.229608     0.588128     0.568231    Uiso  ? C
   C337       1.0     0.118976     0.668898     0.458330    Uiso  ? C
   C338       1.0     0.892977     0.672800     0.445360    Uiso  ? C
   C339       1.0     0.883193     0.695591     0.443314    Uiso  ? C
   H193       1.0     0.892165     0.709431     0.452749    Uiso  ? H
   C340       1.0     0.865422     0.700552     0.426280    Uiso  ? C
   H194       1.0     0.857453     0.718023     0.424958    Uiso  ? H
   C341       1.0     0.855851     0.681615     0.412908    Uiso  ? C
   H195       1.0     0.843393     0.685999     0.399878    Uiso  ? H
   C342       1.0     0.863621     0.658519     0.416695    Uiso  ? C
   C343       1.0     0.881412     0.654222     0.433375    Uiso  ? C
   H196       1.0     0.890648     0.637858     0.434532    Uiso  ? H
   C344       1.0     0.858094     0.637195     0.402019    Uiso  ? C
   C345       1.0     0.262252     0.519378     0.562610    Uiso  ? C
   C346       1.0     0.276770     0.505361     0.546711    Uiso  ? C
   C347       1.0     0.300282     0.512601     0.540447    Uiso  ? C
   H197       1.0     0.307896     0.528417     0.547382    Uiso  ? H
   C348       1.0     0.311604     0.501182     0.521640    Uiso  ? C
   H198       1.0     0.328784     0.507258     0.516239    Uiso  ? H
   C349       1.0     0.302004     0.481806     0.509914    Uiso  ? C
   H199       1.0     0.311613     0.473426     0.496374    Uiso  ? H
   C350       1.0     0.279999     0.473723     0.516214    Uiso  ? C
   C351       1.0     0.268237     0.484373     0.535781    Uiso  ? C
   H200       1.0     0.252513     0.476417     0.541826    Uiso  ? H
   C352       1.0     0.267228     0.453902     0.504810    Uiso  ? C
   C353       1.0     0.222760     0.517480     0.624402    Uiso  ? C
   C354       1.0     0.213958     0.502039     0.642448    Uiso  ? C
   C355       1.0     0.222563     0.502250     0.665454    Uiso  ? C
   H201       1.0     0.237405     0.513490     0.668907    Uiso  ? H
   C356       1.0     0.213595     0.487840     0.682719    Uiso  ? C
   H202       1.0     0.220967     0.488785     0.699598    Uiso  ? H
   C357       1.0     0.192642     0.475142     0.678275    Uiso  ? C
   H203       1.0     0.182540     0.464843     0.691328    Uiso  ? H
   C358       1.0     0.183503     0.474781     0.654692    Uiso  ? C
   C359       1.0     0.195373     0.487643     0.637483    Uiso  ? C
   H204       1.0     0.188042     0.486595     0.619566    Uiso  ? H
   C360       1.0     0.167146     0.454897     0.647519    Uiso  ? C
   C361       1.0     0.882507     0.585772     0.353380    Uiso  ? C
   C362       1.0     0.107571     0.578175     0.339506    Uiso  ? C
   C363       1.0     0.111262     0.584503     0.315618    Uiso  ? C
   H205       1.0     0.892896     0.593470     0.306296    Uiso  ? H
   C364       1.0     0.133468     0.579735     0.304877    Uiso  ? C
   H206       1.0     0.135210     0.585193     0.285802    Uiso  ? H
   C365       1.0     0.151518     0.569348     0.317206    Uiso  ? C
   H207       1.0     0.167357     0.563502     0.309433    Uiso  ? H
   C366       1.0     0.149668     0.568029     0.341540    Uiso  ? C
   C367       1.0     0.127546     0.569758     0.352257    Uiso  ? C
   H208       1.0     0.125431     0.568031     0.371164    Uiso  ? H
   C368       1.0     0.170018     0.559775     0.356244    Uiso  ? C
   C369       1.0     0.809290     0.614687     0.401876    Uiso  ? C
   C370       1.0     0.789532     0.622654     0.415776    Uiso  ? C
   C371       1.0     0.773611     0.638369     0.406804    Uiso  ? C
   H209       1.0     0.777115     0.646073     0.389527    Uiso  ? H
   C372       1.0     0.751712     0.643230     0.417384    Uiso  ? C
   H210       1.0     0.739013     0.653975     0.408866    Uiso  ? H
   C373       1.0     0.749131     0.635670     0.440145    Uiso  ? C
   H211       1.0     0.734576     0.642816     0.449883    Uiso  ? H
   C374       1.0     0.763889     0.620080     0.450635    Uiso  ? C
   C375       1.0     0.783405     0.611324     0.437166    Uiso  ? C
   H212       1.0     0.795425     0.598572     0.444854    Uiso  ? H
   C376       1.0     0.758140     0.609305     0.474387    Uiso  ? C
   C377       1.0     0.731141     0.559548     0.542586    Uiso  ? C
   C378       1.0     0.722146     0.539776     0.557254    Uiso  ? C
   C379       1.0     0.698244     0.538125     0.563404    Uiso  ? C
   H213       1.0     0.685543     0.550557     0.557671    Uiso  ? H
   C380       1.0     0.689612     0.520075     0.577851    Uiso  ? C
   H214       1.0     0.670073     0.518175     0.582357    Uiso  ? H
   C381       1.0     0.705445     0.503682     0.586408    Uiso  ? C
   H215       1.0     0.698996     0.490358     0.597127    Uiso  ? H
   C382       1.0     0.729458     0.504242     0.580304    Uiso  ? C
   C383       1.0     0.737995     0.522779     0.565143    Uiso  ? C
   H216       1.0     0.756168     0.523938     0.561664    Uiso  ? H
   C384       1.0     0.747221     0.488981     0.591204    Uiso  ? C
   O163       1.0     0.887556     0.614479     0.592118    Uiso  ? O
   O164       1.0     0.896611     0.633114     0.625237    Uiso  ? O
   O165       1.0     0.120202     0.583609     0.622442    Uiso  ? O
   O166       1.0     0.114792     0.613861     0.645133    Uiso  ? O
   O167       1.0     0.858182     0.565965     0.629689    Uiso  ? O
   O168       1.0     0.863203     0.583535     0.663430    Uiso  ? O
   O169       1.0     0.856451     0.607933     0.594994    Uiso  ? O
   O170       1.0     0.843312     0.623286     0.626983    Uiso  ? O
   O171       1.0     0.179681     0.628520     0.473595    Uiso  ? O
   O172       1.0     0.181604     0.664634     0.459959    Uiso  ? O
   O173       1.0     0.179155     0.631316     0.502427    Uiso  ? O
   O174       1.0     0.180946     0.668812     0.512855    Uiso  ? O
   O175       1.0     0.133947     0.643915     0.519299    Uiso  ? O
   O176       1.0     0.154952     0.677527     0.521527    Uiso  ? O
   O177       1.0     0.128907     0.649269     0.457096    Uiso  ? O
   O178       1.0     0.124773     0.682648     0.475019    Uiso  ? O
   O179       1.0     0.240563     0.515274     0.564421    Uiso  ? O
   O180       1.0     0.270464     0.538928     0.570957    Uiso  ? O
   O181       1.0     0.207638     0.525045     0.609733    Uiso  ? O
   O182       1.0     0.244192     0.524594     0.623979    Uiso  ? O
   O183       1.0     0.203037     0.552763     0.607380    Uiso  ? O
   O184       1.0     0.231152     0.578536     0.612991    Uiso  ? O
   O185       1.0     0.218000     0.571485     0.559749    Uiso  ? O
   O186       1.0     0.242773     0.583484     0.585535    Uiso  ? O
   O187       1.0     0.876095     0.572589     0.371400    Uiso  ? O
   O188       1.0     0.870482     0.604151     0.347491    Uiso  ? O
   O189       1.0     0.865649     0.616352     0.407440    Uiso  ? O
   O190       1.0     0.843926     0.640390     0.384645    Uiso  ? O
   O191       1.0     0.819901     0.595495     0.406785    Uiso  ? O
   O192       1.0     0.817536     0.628348     0.385525    Uiso  ? O
   O193       1.0     0.820769     0.569756     0.386266    Uiso  ? O
   O194       1.0     0.813003     0.586797     0.352660    Uiso  ? O
   O195       1.0     0.774697     0.601998     0.486798    Uiso  ? O
   O196       1.0     0.737015     0.606449     0.480662    Uiso  ? O
   O197       1.0     0.783101     0.591382     0.545195    Uiso  ? O
   O198       1.0     0.757623     0.620004     0.538625    Uiso  ? O
   O199       1.0     0.750844     0.557226     0.532045    Uiso  ? O
   O200       1.0     0.719954     0.578151     0.540699    Uiso  ? O
   O201       1.0     0.749913     0.551794     0.500254    Uiso  ? O
   O202       1.0     0.726803     0.580836     0.490500    Uiso  ? O
   O203       1.0     0.194977     0.510920     0.377111    Uiso  ? O
   O204       1.0     0.205280     0.530280     0.343980    Uiso  ? O
   O205       1.0     0.215598     0.511944     0.403135    Uiso  ? O
   O206       1.0     0.244144     0.524785     0.380514    Uiso  ? O
   O207       1.0     0.210591     0.567214     0.413808    Uiso  ? O
   O208       1.0     0.226422     0.580401     0.381476    Uiso  ? O
   O209       1.0     0.165957     0.553977     0.377065    Uiso  ? O
   O210       1.0     0.190927     0.557898     0.347783    Uiso  ? O
   O211       1.0     0.887435     0.553782     0.587142    Uiso  ? O
   O212       1.0     0.128741     0.601121     0.482116    Uiso  ? O
   O213       1.0     0.188055     0.526823     0.552393    Uiso  ? O
   O214       1.0     0.865205     0.560532     0.423255    Uiso  ? O
   O215       1.0     0.804821     0.560233     0.508920    Uiso  ? O
   O216       1.0     0.168986     0.528325     0.429125    Uiso  ? O
   Zn37       1.0     0.881427     0.583175     0.608537    Uiso  ? Zn
   Zn38       1.0     0.874470     0.615365     0.649750    Uiso  ? Zn
   Zn39       1.0     0.144782     0.633094     0.485949    Uiso  ? Zn
   Zn40       1.0     0.159370     0.681288     0.483905    Uiso  ? Zn
   Zn41       1.0     0.215247     0.538218     0.575061    Uiso  ? Zn
   Zn42       1.0     0.256351     0.551423     0.601889    Uiso  ? Zn
   Zn43       1.0     0.854657     0.582711     0.398045    Uiso  ? Zn
   Zn44       1.0     0.838349     0.614168     0.357396    Uiso  ? Zn
   Zn45       1.0     0.774533     0.577468     0.512999    Uiso  ? Zn
   Zn46       1.0     0.730504     0.604437     0.518628    Uiso  ? Zn
   Zn47       1.0     0.190652     0.539250     0.400545    Uiso  ? Zn
   Zn48       1.0     0.226901     0.550641     0.362657    Uiso  ? Zn
   H217       1.0     0.114570     0.596204     0.489680    Uiso  ? H
   H218       1.0     0.137976     0.589052     0.474364    Uiso  ? H
   H219       1.0     0.886054     0.409334     0.495548    Uiso  ? H
   H220       1.0     0.869651     0.418061     0.517550    Uiso  ? H
   H221       1.0     0.821008     0.506495     0.562673    Uiso  ? H
   H222       1.0     0.837518     0.481863     0.565788    Uiso  ? H
   H223       1.0     0.131666     0.478639     0.591533    Uiso  ? H
   H224       1.0     0.114156     0.462343     0.574001    Uiso  ? H
   H225       1.0     0.174253     0.521165     0.444367    Uiso  ? H
   H226       1.0     0.153232     0.525153     0.422959    Uiso  ? H
   H227       1.0     0.111390     0.467008     0.410419    Uiso  ? H
   H228       1.0     0.110851     0.445208     0.432111    Uiso  ? H
   H229       1.0     0.173209     0.443585     0.472454    Uiso  ? H
   H230       1.0     0.180160     0.460968     0.493085    Uiso  ? H
   H231       1.0     0.881626     0.559724     0.423922    Uiso  ? H
   H232       1.0     0.856404     0.555351     0.436963    Uiso  ? H
   H233       1.0     0.826414     0.470780     0.440768    Uiso  ? H
   H234       1.0     0.813496     0.460767     0.465086    Uiso  ? H
   H235       1.0     0.803673     0.543829     0.512881    Uiso  ? H
   H236       1.0     0.817431     0.565677     0.498930    Uiso  ? H
   H237       1.0     0.188085     0.511085     0.546387    Uiso  ? H
   H238       1.0     0.176918     0.538741     0.546979    Uiso  ? H
   H239       1.0     0.892634     0.537391     0.590172    Uiso  ? H
   H240       1.0     0.878929     0.556529     0.572115    Uiso  ? H
   C385       1.0     0.642412     0.884704     0.408723    Uiso  ? C
   C386       1.0     0.646582     0.858532     0.409667    Uiso  ? C
   C387       1.0     0.667321     0.849872     0.400309    Uiso  ? C
   H241       1.0     0.681946     0.861620     0.392383    Uiso  ? H
   C388       1.0     0.669941     0.825434     0.397628    Uiso  ? C
   H242       1.0     0.685374     0.819906     0.389432    Uiso  ? H
   C389       1.0     0.654822     0.809372     0.408521    Uiso  ? C
   H243       1.0     0.660181     0.790520     0.410380    Uiso  ? H
   C390       1.0     0.633485     0.818309     0.416885    Uiso  ? C
   C391       1.0     0.629499     0.842854     0.417531    Uiso  ? C
   H244       1.0     0.614578     0.849666     0.426445    Uiso  ? H
   C392       1.0     0.613772     0.801837     0.422468    Uiso  ? C
   C393       1.0     0.599465     0.132715     0.368014    Uiso  ? C
   C394       1.0     0.583049     0.133178     0.347151    Uiso  ? C
   C395       1.0     0.590965     0.134614     0.324254    Uiso  ? C
   H245       1.0     0.608447     0.140738     0.319532    Uiso  ? H
   C396       1.0     0.575300     0.129952     0.305225    Uiso  ? C
   H246       1.0     0.582464     0.130253     0.287506    Uiso  ? H
   C397       1.0     0.552328     0.123383     0.309509    Uiso  ? C
   H247       1.0     0.542409     0.115829     0.294163    Uiso  ? H
   C398       1.0     0.543456     0.121076     0.333050    Uiso  ? C
   C399       1.0     0.558735     0.127208     0.351718    Uiso  ? C
   H248       1.0     0.553379     0.123231     0.370009    Uiso  ? H
   C400       1.0     0.521977     0.107775     0.338008    Uiso  ? C
   C401       1.0     0.616817     0.177446     0.401017    Uiso  ? C
   C402       1.0     0.609652     0.202589     0.402471    Uiso  ? C
   C403       1.0     0.623966     0.219655     0.392439    Uiso  ? C
   H249       1.0     0.640466     0.215071     0.385434    Uiso  ? H
   C404       1.0     0.617911     0.243414     0.394089    Uiso  ? C
   H250       1.0     0.629494     0.255618     0.385830    Uiso  ? H
   C405       1.0     0.597091     0.250919     0.405573    Uiso  ? C
   H251       1.0     0.592644     0.269580     0.407728    Uiso  ? H
   C406       1.0     0.582656     0.233107     0.415864    Uiso  ? C
   C407       1.0     0.588352     0.209754     0.414262    Uiso  ? C
   H252       1.0     0.578816     0.196575     0.424761    Uiso  ? H
   C408       1.0     0.561090     0.240183     0.428944    Uiso  ? C
   C409       1.0     0.650243     0.160503     0.437521    Uiso  ? C
   C410       1.0     0.660817     0.174312     0.457015    Uiso  ? C
   C411       1.0     0.682080     0.185313     0.453430    Uiso  ? C
   H253       1.0     0.691323     0.183318     0.436947    Uiso  ? H
   C412       1.0     0.693445     0.195819     0.472008    Uiso  ? C
   H254       1.0     0.711824     0.201628     0.469662    Uiso  ? H
   C413       1.0     0.683092     0.196091     0.494447    Uiso  ? C
   H255       1.0     0.691938     0.205283     0.509865    Uiso  ? H
   C414       1.0     0.660159     0.187207     0.498687    Uiso  ? C
   C415       1.0     0.649167     0.176512     0.478864    Uiso  ? C
   H256       1.0     0.630813     0.171074     0.480377    Uiso  ? H
   C416       1.0     0.647119     0.189537     0.521630    Uiso  ? C
   C417       1.0     0.562879     0.740615     0.465098    Uiso  ? C
   C418       1.0     0.553316     0.724150     0.481549    Uiso  ? C
   C419       1.0     0.562476     0.701482     0.482912    Uiso  ? C
   H257       1.0     0.574200     0.697249     0.468954    Uiso  ? H
   C420       1.0     0.554247     0.685615     0.498761    Uiso  ? C
   H258       1.0     0.561789     0.667792     0.498113    Uiso  ? H
   C421       1.0     0.536095     0.691203     0.514631    Uiso  ? C
   H259       1.0     0.527935     0.679511     0.527702    Uiso  ? H
   C422       1.0     0.526059     0.714523     0.513515    Uiso  ? C
   C423       1.0     0.534829     0.730016     0.496604    Uiso  ? C
   H260       1.0     0.528042     0.747916     0.496426    Uiso  ? H
   C424       1.0     0.513152     0.725153     0.533688    Uiso  ? C
   C425       1.0     0.548685     0.773676     0.398848    Uiso  ? C
   C426       1.0     0.535616     0.777308     0.377139    Uiso  ? C
   C427       1.0     0.533514     0.760573     0.358825    Uiso  ? C
   H261       1.0     0.539458     0.742643     0.361394    Uiso  ? H
   C428       1.0     0.521299     0.766297     0.338423    Uiso  ? C
   H262       1.0     0.516380     0.752545     0.325516    Uiso  ? H
   C429       1.0     0.513522     0.789192     0.333916    Uiso  ? C
   H263       1.0     0.505010     0.793398     0.318132    Uiso  ? H
   C430       1.0     0.516813     0.805774     0.350975    Uiso  ? C
   C431       1.0     0.527044     0.800119     0.372689    Uiso  ? C
   H264       1.0     0.527075     0.812573     0.386552    Uiso  ? H
   C432       1.0     0.507216     0.829605     0.348001    Uiso  ? C
   C433       1.0     0.609154     0.769699     0.468454    Uiso  ? C
   C434       1.0     0.627022     0.768612     0.488266    Uiso  ? C
   C435       1.0     0.640570     0.747659     0.490919    Uiso  ? C
   H265       1.0     0.641755     0.733523     0.478269    Uiso  ? H
   C436       1.0     0.655465     0.745612     0.511346    Uiso  ? C
   H266       1.0     0.666668     0.729819     0.514425    Uiso  ? H
   C437       1.0     0.655491     0.763306     0.529077    Uiso  ? C
   H267       1.0     0.667122     0.760711     0.544114    Uiso  ? H
   C438       1.0     0.641144     0.783792     0.526917    Uiso  ? C
   C439       1.0     0.626119     0.784993     0.506228    Uiso  ? C
   H268       1.0     0.616439     0.800453     0.505524    Uiso  ? H
   C440       1.0     0.640654     0.801840     0.545430    Uiso  ? C
   C441       1.0     0.451922     0.843336     0.352975    Uiso  ? C
   C442       1.0     0.430865     0.828596     0.358200    Uiso  ? C
   C443       1.0     0.416032     0.821380     0.339386    Uiso  ? C
   H269       1.0     0.420382     0.823512     0.319868    Uiso  ? H
   C444       1.0     0.396209     0.808170     0.343427    Uiso  ? C
   H270       1.0     0.385372     0.800552     0.330230    Uiso  ? H
   C445       1.0     0.392290     0.800974     0.366637    Uiso  ? C
   H271       1.0     0.377442     0.788553     0.369769    Uiso  ? H
   C446       1.0     0.406556     0.809633     0.385302    Uiso  ? C
   C447       1.0     0.425206     0.824660     0.380775    Uiso  ? C
   H272       1.0     0.436566     0.831202     0.395122    Uiso  ? H
   C448       1.0     0.401128     0.804025     0.409839    Uiso  ? C
   C449       1.0     0.447327     0.896384     0.343490    Uiso  ? C
   C450       1.0     0.425349     0.113644     0.345050    Uiso  ? C
   C451       1.0     0.409281     0.116828     0.325573    Uiso  ? C
   H273       1.0     0.412127     0.111310     0.307967    Uiso  ? H
   C452       1.0     0.389061     0.130382     0.328559    Uiso  ? C
   H274       1.0     0.378476     0.133525     0.313747    Uiso  ? H
   C453       1.0     0.385707     0.142759     0.349234    Uiso  ? C
   H275       1.0     0.371564     0.155777     0.351320    Uiso  ? H
   C454       1.0     0.399029     0.137441     0.368699    Uiso  ? C
   C455       1.0     0.418959     0.122754     0.366754    Uiso  ? C
   H276       1.0     0.427990     0.118975     0.382655    Uiso  ? H
   C456       1.0     0.393520     0.148139     0.392631    Uiso  ? C
   C457       1.0     0.608712     0.789587     0.589540    Uiso  ? C
   C458       1.0     0.595125     0.767216     0.590072    Uiso  ? C
   C459       1.0     0.607967     0.745840     0.593975    Uiso  ? C
   H277       1.0     0.627265     0.744752     0.594783    Uiso  ? H
   C460       1.0     0.594921     0.724824     0.595671    Uiso  ? C
   H278       1.0     0.603615     0.708732     0.601095    Uiso  ? H
   C461       1.0     0.570247     0.724930     0.592443    Uiso  ? C
   H279       1.0     0.562404     0.707378     0.594301    Uiso  ? H
   C462       1.0     0.559027     0.744921     0.585471    Uiso  ? C
   C463       1.0     0.570710     0.766716     0.586961    Uiso  ? C
   H280       1.0     0.560446     0.782123     0.587411    Uiso  ? H
   C464       1.0     0.533347     0.743883     0.579730    Uiso  ? C
   C465       1.0     0.660778     0.864900     0.575716    Uiso  ? C
   C466       1.0     0.672993     0.888237     0.569520    Uiso  ? C
   C467       1.0     0.696651     0.890155     0.565025    Uiso  ? C
   H281       1.0     0.707739     0.875566     0.567298    Uiso  ? H
   C468       1.0     0.706889     0.116953     0.560052    Uiso  ? C
   H282       1.0     0.726229     0.117129     0.558500    Uiso  ? H
   C469       1.0     0.693380     0.137097     0.559280    Uiso  ? C
   H283       1.0     0.701945     0.153009     0.554805    Uiso  ? H
   C470       1.0     0.670022     0.134946     0.564740    Uiso  ? C
   C471       1.0     0.659893     0.113390     0.569490    Uiso  ? C
   H284       1.0     0.641153     0.111918     0.571554    Uiso  ? H
   C472       1.0     0.654773     0.156855     0.565545    Uiso  ? C
   C473       1.0     0.614448     0.229897     0.538179    Uiso  ? C
   C474       1.0     0.605868     0.249456     0.523610    Uiso  ? C
   C475       1.0     0.619075     0.269976     0.521661    Uiso  ? C
   H285       1.0     0.635343     0.271886     0.531026    Uiso  ? H
   C476       1.0     0.611745     0.287646     0.506552    Uiso  ? C
   H286       1.0     0.623305     0.302449     0.505133    Uiso  ? H
   C477       1.0     0.591674     0.284973     0.493722    Uiso  ? C
   H287       1.0     0.585551     0.298331     0.480766    Uiso  ? H
   C478       1.0     0.577086     0.265212     0.496099    Uiso  ? C
   C479       1.0     0.584294     0.247405     0.511559    Uiso  ? C
   H288       1.0     0.573918     0.231937     0.513892    Uiso  ? H
   C480       1.0     0.555120     0.261821     0.481646    Uiso  ? C
   O217       1.0     0.621163     0.891753     0.410540    Uiso  ? O
   O218       1.0     0.659335     0.104333     0.404512    Uiso  ? O
   O219       1.0     0.591568     0.136316     0.389485    Uiso  ? O
   O220       1.0     0.621707     0.131021     0.365218    Uiso  ? O
   O221       1.0     0.600988     0.161921     0.404498    Uiso  ? O
   O222       1.0     0.638228     0.171627     0.395256    Uiso  ? O
   O223       1.0     0.633200     0.146592     0.441273    Uiso  ? O
   O224       1.0     0.657208     0.161883     0.416088    Uiso  ? O
   O225       1.0     0.552974     0.761431     0.462367    Uiso  ? O
   O226       1.0     0.582112     0.736066     0.453658    Uiso  ? O
   O227       1.0     0.551437     0.790231     0.413436    Uiso  ? O
   O228       1.0     0.563145     0.756226     0.400784    Uiso  ? O
   O229       1.0     0.599129     0.806672     0.439393    Uiso  ? O
   O230       1.0     0.613779     0.781806     0.412163    Uiso  ? O
   O231       1.0     0.597755     0.788254     0.464010    Uiso  ? O
   O232       1.0     0.607275     0.751219     0.455911    Uiso  ? O
   O233       1.0     0.457785     0.860925     0.366799    Uiso  ? O
   O234       1.0     0.463195     0.840648     0.334054    Uiso  ? O
   O235       1.0     0.457191     0.889031     0.362546    Uiso  ? O
   O236       1.0     0.454545     0.888882     0.322842    Uiso  ? O
   O237       1.0     0.509420     0.109644     0.356758    Uiso  ? O
   O238       1.0     0.513703     0.889619     0.321766    Uiso  ? O
   O239       1.0     0.509427     0.844440     0.363720    Uiso  ? O
   O240       1.0     0.493201     0.833831     0.330444    Uiso  ? O
   O241       1.0     0.597968     0.809124     0.587514    Uiso  ? O
   O242       1.0     0.631473     0.789115     0.588711    Uiso  ? O
   O243       1.0     0.629587     0.821045     0.543294    Uiso  ? O
   O244       1.0     0.648378     0.796809     0.565809    Uiso  ? O
   O245       1.0     0.639501     0.865224     0.583441    Uiso  ? O
   O246       1.0     0.670511     0.844027     0.573606    Uiso  ? O
   O247       1.0     0.599431     0.833040     0.604210    Uiso  ? O
   O248       1.0     0.634807     0.832598     0.619728    Uiso  ? O
   O249       1.0     0.633121     0.154301     0.564402    Uiso  ? O
   O250       1.0     0.664319     0.177130     0.565318    Uiso  ? O
   O251       1.0     0.624214     0.188008     0.522719    Uiso  ? O
   O252       1.0     0.658025     0.196080     0.540109    Uiso  ? O
   O253       1.0     0.606217     0.209604     0.533035    Uiso  ? O
   O254       1.0     0.631452     0.232462     0.553550    Uiso  ? O
   O255       1.0     0.595199     0.195891     0.583455    Uiso  ? O
   O256       1.0     0.628300     0.202077     0.601776    Uiso  ? O
   O257       1.0     0.461737     0.770484     0.579992    Uiso  ? O
   O258       1.0     0.476611     0.744365     0.605289    Uiso  ? O
   O259       1.0     0.471014     0.746451     0.529294    Uiso  ? O
   O260       1.0     0.458309     0.718581     0.552453    Uiso  ? O
   O261       1.0     0.500874     0.743888     0.528964    Uiso  ? O
   O262       1.0     0.510295     0.715002     0.552837    Uiso  ? O
   O263       1.0     0.523375     0.762778     0.572554    Uiso  ? O
   O264       1.0     0.521927     0.724666     0.580024    Uiso  ? O
   O265       1.0     0.581663     0.114962     0.441805    Uiso  ? O
   O266       1.0     0.544396     0.816512     0.461263    Uiso  ? O
   O267       1.0     0.504529     0.876545     0.402508    Uiso  ? O
   O268       1.0     0.592206     0.864842     0.553254    Uiso  ? O
   O269       1.0     0.575152     0.160537     0.550396    Uiso  ? O
   O270       1.0     0.493654     0.802333     0.545056    Uiso  ? O
   Zn49       1.0     0.609456     0.128920     0.419521    Uiso  ? Zn
   Zn50       1.0     0.651125     0.137767     0.386608    Uiso  ? Zn
   Zn51       1.0     0.566075     0.792256     0.445495    Uiso  ? Zn
   Zn52       1.0     0.594023     0.752311     0.420259    Uiso  ? Zn
   Zn53       1.0     0.492889     0.875677     0.368278    Uiso  ? Zn
   Zn54       1.0     0.483972     0.866987     0.316789    Uiso  ? Zn
   Zn55       1.0     0.615349     0.840692     0.571163    Uiso  ? Zn
   Zn56       1.0     0.654905     0.817653     0.593817    Uiso  ? Zn
   Zn57       1.0     0.607835     0.178639     0.554451    Uiso  ? Zn
   Zn58       1.0     0.650158     0.208925     0.574499    Uiso  ? Zn
   Zn59       1.0     0.487889     0.767322     0.555842    Uiso  ? Zn
   Zn60       1.0     0.484731     0.721463     0.579848    Uiso  ? Zn
   C481       1.0     0.373601     0.106934     0.614534    Uiso  ? C
   C482       1.0     0.372036     0.132278     0.619997    Uiso  ? C
   C483       1.0     0.355829     0.139144     0.637499    Uiso  ? C
   H289       1.0     0.347776     0.125422     0.647061    Uiso  ? H
   C484       1.0     0.353743     0.162279     0.643191    Uiso  ? C
   H290       1.0     0.342961     0.166035     0.658310    Uiso  ? H
   C485       1.0     0.365296     0.180137     0.630605    Uiso  ? C
   H291       1.0     0.361125     0.198887     0.635369    Uiso  ? H
   C486       1.0     0.381877     0.173157     0.612676    Uiso  ? C
   C487       1.0     0.386538     0.148988     0.608877    Uiso  ? C
   H292       1.0     0.399911     0.143781     0.595993    Uiso  ? H
   C488       1.0     0.392957     0.191602     0.599428    Uiso  ? C
   C489       1.0     0.412056     0.868265     0.640381    Uiso  ? C
   C490       1.0     0.426083     0.873306     0.662234    Uiso  ? C
   C491       1.0     0.417711     0.868818     0.685316    Uiso  ? C
   H293       1.0     0.400521     0.861425     0.687504    Uiso  ? H
   C492       1.0     0.432433     0.872409     0.704084    Uiso  ? C
   H294       1.0     0.426234     0.866860     0.722202    Uiso  ? H
   C493       1.0     0.456172     0.880202     0.700469    Uiso  ? C
   H295       1.0     0.467130     0.886295     0.714945    Uiso  ? H
   C494       1.0     0.464403     0.886949     0.678618    Uiso  ? C
   C495       1.0     0.449492     0.881820     0.659033    Uiso  ? C
   H296       1.0     0.455399     0.884845     0.641214    Uiso  ? H
   C496       1.0     0.487895     0.103038     0.674071    Uiso  ? C
   C497       1.0     0.403146     0.819691     0.621372    Uiso  ? C
   C498       1.0     0.415584     0.799758     0.629976    Uiso  ? C
   C499       1.0     0.410153     0.785016     0.649353    Uiso  ? C
   H297       1.0     0.393050     0.787138     0.658616    Uiso  ? H
   C500       1.0     0.424648     0.764901     0.655236    Uiso  ? C
   H298       1.0     0.419456     0.753767     0.669627    Uiso  ? H
   C501       1.0     0.441818     0.757621     0.639492    Uiso  ? C
   H299       1.0     0.448480     0.739941     0.641351    Uiso  ? H
   C502       1.0     0.446415     0.770956     0.619027    Uiso  ? C
   C503       1.0     0.434384     0.791948     0.615530    Uiso  ? C
   H300       1.0     0.439633     0.799913     0.599139    Uiso  ? H
   C504       1.0     0.462975     0.761931     0.601125    Uiso  ? C
   C505       1.0     0.359766     0.843241     0.571362    Uiso  ? C
   C506       1.0     0.347454     0.837422     0.549051    Uiso  ? C
   C507       1.0     0.322770     0.840673     0.547130    Uiso  ? C
   H301       1.0     0.312437     0.847991     0.561603    Uiso  ? H
   C508       1.0     0.311097     0.833656     0.526473    Uiso  ? C
   H302       1.0     0.292295     0.834019     0.524135    Uiso  ? H
   C509       1.0     0.324840     0.823376     0.507200    Uiso  ? C
   H303       1.0     0.315557     0.814887     0.493145    Uiso  ? H
   C510       1.0     0.348977     0.819508     0.510036    Uiso  ? C
   C511       1.0     0.360130     0.828287     0.529968    Uiso  ? C
   H304       1.0     0.379249     0.827876     0.532776    Uiso  ? H
   C512       1.0     0.362525     0.809499     0.490558    Uiso  ? C
   C513       1.0     0.452385     0.252933     0.561995    Uiso  ? C
   C514       1.0     0.468461     0.267666     0.549078    Uiso  ? C
   C515       1.0     0.473597     0.290218     0.556842    Uiso  ? C
   H305       1.0     0.463434     0.296667     0.572869    Uiso  ? H
   C516       1.0     0.485734     0.307005     0.542012    Uiso  ? C
   H306       1.0     0.488613     0.325870     0.548144    Uiso  ? H
   C517       1.0     0.494132     0.298862     0.519895    Uiso  ? C
   H307       1.0     0.502568     0.312352     0.508696    Uiso  ? H
   C518       1.0     0.492414     0.275844     0.513295    Uiso  ? C
   C519       1.0     0.479044     0.259821     0.527762    Uiso  ? C
   H308       1.0     0.476702     0.241072     0.521915    Uiso  ? H
   C520       1.0     0.501075     0.267763     0.490380    Uiso  ? C
   C521       1.0     0.438949     0.208656     0.622192    Uiso  ? C
   C522       1.0     0.449422     0.200067     0.645600    Uiso  ? C
   C523       1.0     0.441224     0.210239     0.666222    Uiso  ? C
   H309       1.0     0.427130     0.223770     0.665949    Uiso  ? H
   C524       1.0     0.450031     0.201939     0.688258    Uiso  ? C
   H310       1.0     0.444311     0.208209     0.704764    Uiso  ? H
   C525       1.0     0.467700     0.184044     0.689617    Uiso  ? C
   H311       1.0     0.473824     0.177776     0.707848    Uiso  ? H
   C526       1.0     0.477405     0.175381     0.668409    Uiso  ? C
   C527       1.0     0.467306     0.182937     0.647130    Uiso  ? C
   H312       1.0     0.474391     0.175715     0.631156    Uiso  ? H
   C528       1.0     0.496090     0.157518     0.668935    Uiso  ? C
   C529       1.0     0.390270     0.217317     0.549113    Uiso  ? C
   C530       1.0     0.372349     0.214840     0.530022    Uiso  ? C
   C531       1.0     0.351954     0.227835     0.532167    Uiso  ? C
   H313       1.0     0.350720     0.236602     0.549403    Uiso  ? H
   C532       1.0     0.334832     0.226724     0.515135    Uiso  ? C
   H314       1.0     0.319414     0.237968     0.515631    Uiso  ? H
   C533       1.0     0.339191     0.215155     0.494263    Uiso  ? C
   H315       1.0     0.326571     0.216586     0.479702    Uiso  ? H
   C534       1.0     0.360574     0.202851     0.490755    Uiso  ? C
   C535       1.0     0.376330     0.201435     0.509833    Uiso  ? C
   H316       1.0     0.391270     0.189734     0.509120    Uiso  ? H
   C536       1.0     0.364900     0.189389     0.470061    Uiso  ? C
   C537       1.0     0.550771     0.163082     0.656326    Uiso  ? C
   C538       1.0     0.564983     0.183745     0.651309    Uiso  ? C
   C539       1.0     0.569807     0.201148     0.668646    Uiso  ? C
   H317       1.0     0.562515     0.198751     0.686293    Uiso  ? H
   C540       1.0     0.587641     0.218223     0.664035    Uiso  ? C
   H318       1.0     0.593389     0.230324     0.678048    Uiso  ? H
   C541       1.0     0.600264     0.218055     0.642425    Uiso  ? C
   H319       1.0     0.613795     0.232189     0.639385    Uiso  ? H
   C542       1.0     0.593128     0.202233     0.624745    Uiso  ? C
   C543       1.0     0.574614     0.186641     0.629173    Uiso  ? C
   H320       1.0     0.569402     0.173723     0.615881    Uiso  ? H
   C544       1.0     0.606254     0.200452     0.601884    Uiso  ? C
   C545       1.0     0.558518     0.887667     0.665625    Uiso  ? C
   C546       1.0     0.577656     0.870188     0.665796    Uiso  ? C
   C547       1.0     0.586729     0.862592     0.687374    Uiso  ? C
   H321       1.0     0.581322     0.871429     0.703336    Uiso  ? H
   C548       1.0     0.605292     0.845771     0.688025    Uiso  ? C
   H322       1.0     0.613465     0.839162     0.704117    Uiso  ? H
   C549       1.0     0.613726     0.837236     0.666687    Uiso  ? C
   H323       1.0     0.627582     0.824788     0.666972    Uiso  ? H
   C550       1.0     0.603824     0.844199     0.645332    Uiso  ? C
   C551       1.0     0.585949     0.861888     0.644679    Uiso  ? C
   H324       1.0     0.579616     0.866617     0.627205    Uiso  ? H
   C552       1.0     0.612763     0.835745     0.622082    Uiso  ? C
   C553       1.0     0.411357     0.192288     0.416741    Uiso  ? C
   C554       1.0     0.428247     0.210400     0.407072    Uiso  ? C
   C555       1.0     0.422710     0.223733     0.387435    Uiso  ? C
   H325       1.0     0.407366     0.220169     0.377263    Uiso  ? H
   C556       1.0     0.438870     0.240114     0.379166    Uiso  ? C
   H326       1.0     0.434476     0.251081     0.362738    Uiso  ? H
   C557       1.0     0.458950     0.244440     0.392832    Uiso  ? C
   H327       1.0     0.470010     0.259236     0.387284    Uiso  ? H
   C558       1.0     0.464397     0.231143     0.412441    Uiso  ? C
   C559       1.0     0.449195     0.212926     0.418734    Uiso  ? C
   H328       1.0     0.452864     0.200898     0.433484    Uiso  ? H
   C560       1.0     0.486599     0.236250     0.425403    Uiso  ? C
   C561       1.0     0.360128     0.122018     0.431902    Uiso  ? C
   C562       1.0     0.347633     0.894377     0.429292    Uiso  ? C
   C563       1.0     0.324034     0.894162     0.421197    Uiso  ? C
   H329       1.0     0.317023     0.114159     0.413670    Uiso  ? H
   C564       1.0     0.311173     0.872364     0.420903    Uiso  ? C
   H330       1.0     0.292792     0.871712     0.415973    Uiso  ? H
   C565       1.0     0.322326     0.851803     0.428975    Uiso  ? C
   H331       1.0     0.313330     0.835380     0.428727    Uiso  ? H
   C566       1.0     0.346860     0.852645     0.435562    Uiso  ? C
   C567       1.0     0.359456     0.873726     0.436402    Uiso  ? C
   H332       1.0     0.377671     0.875770     0.440367    Uiso  ? H
   C568       1.0     0.359926     0.830105     0.440080    Uiso  ? C
   C569       1.0     0.404237     0.753908     0.468716    Uiso  ? C
   C570       1.0     0.416076     0.733294     0.480769    Uiso  ? C
   C571       1.0     0.406598     0.710869     0.479850    Uiso  ? C
   H333       1.0     0.394223     0.707218     0.466237    Uiso  ? H
   C572       1.0     0.415252     0.693996     0.495680    Uiso  ? C
   H334       1.0     0.409857     0.675634     0.493623    Uiso  ? H
   C573       1.0     0.431014     0.699929     0.514101    Uiso  ? C
   H335       1.0     0.436023     0.686821     0.526940    Uiso  ? H
   C574       1.0     0.441052     0.722917     0.514330    Uiso  ? C
   C575       1.0     0.434400     0.739409     0.497206    Uiso  ? C
   H336       1.0     0.441703     0.757163     0.496014    Uiso  ? H
   C576       1.0     0.457107     0.729910     0.533371    Uiso  ? C
   O271       1.0     0.382546     0.896503     0.595854    Uiso  ? O
   O272       1.0     0.365231     0.887429     0.628805    Uiso  ? O
   O273       1.0     0.420371     0.863082     0.620421    Uiso  ? O
   O274       1.0     0.388930     0.867254     0.643012    Uiso  ? O
   O275       1.0     0.413961     0.835392     0.609259    Uiso  ? O
   O276       1.0     0.381865     0.824628     0.627950    Uiso  ? O
   O277       1.0     0.381638     0.839047     0.572645    Uiso  ? O
   O278       1.0     0.349679     0.855022     0.587681    Uiso  ? O
   O279       1.0     0.445083     0.234331     0.553532    Uiso  ? O
   O280       1.0     0.447753     0.257430     0.583124    Uiso  ? O
   O281       1.0     0.446944     0.198579     0.604333    Uiso  ? O
   O282       1.0     0.422798     0.224235     0.621944    Uiso  ? O
   O283       1.0     0.403017     0.185462     0.580369    Uiso  ? O
   O284       1.0     0.397906     0.212668     0.608717    Uiso  ? O
   O285       1.0     0.403501     0.199596     0.553217    Uiso  ? O
   O286       1.0     0.392249     0.236010     0.562221    Uiso  ? O
   O287       1.0     0.535757     0.155859     0.641586    Uiso  ? O
   O288       1.0     0.553303     0.153067     0.676654    Uiso  ? O
   O289       1.0     0.554398     0.102944     0.646556    Uiso  ? O
   O290       1.0     0.547433     0.891000     0.684643    Uiso  ? O
   O291       1.0     0.496545     0.103328     0.653913    Uiso  ? O
   O292       1.0     0.497597     0.115482     0.690156    Uiso  ? O
   O293       1.0     0.507511     0.152610     0.650294    Uiso  ? O
   O294       1.0     0.500397     0.146275     0.687506    Uiso  ? O
   O295       1.0     0.418366     0.178256     0.432039    Uiso  ? O
   O296       1.0     0.389892     0.192350     0.409149    Uiso  ? O
   O297       1.0     0.377423     0.170821     0.470110    Uiso  ? O
   O298       1.0     0.355318     0.195046     0.450686    Uiso  ? O
   O299       1.0     0.382177     0.122990     0.430141    Uiso  ? O
   O300       1.0     0.348042     0.141158     0.431555    Uiso  ? O
   O301       1.0     0.397663     0.136916     0.412051    Uiso  ? O
   O302       1.0     0.382458     0.167270     0.393628    Uiso  ? O
   O303       1.0     0.382406     0.830287     0.442416    Uiso  ? O
   O304       1.0     0.348889     0.812029     0.445717    Uiso  ? O
   O305       1.0     0.383457     0.817010     0.488784    Uiso  ? O
   O306       1.0     0.353322     0.795375     0.476003    Uiso  ? O
   O307       1.0     0.416972     0.771223     0.462184    Uiso  ? O
   O308       1.0     0.382363     0.754795     0.466357    Uiso  ? O
   O309       1.0     0.407269     0.817427     0.426229    Uiso  ? O
   O310       1.0     0.385953     0.787622     0.414447    Uiso  ? O
   O311       1.0     0.546379     0.224661     0.435638    Uiso  ? O
   O312       1.0     0.556214     0.261560     0.433247    Uiso  ? O
   O313       1.0     0.540743     0.245099     0.487435    Uiso  ? O
   O314       1.0     0.552881     0.272194     0.461714    Uiso  ? O
   O315       1.0     0.511416     0.247481     0.489152    Uiso  ? O
   O316       1.0     0.502534     0.281561     0.472926    Uiso  ? O
   O317       1.0     0.491102     0.223379     0.442557    Uiso  ? O
   O318       1.0     0.498377     0.255530     0.422368    Uiso  ? O
   O319       1.0     0.422440     0.874348     0.559770    Uiso  ? O
   O320       1.0     0.457526     0.181398     0.550593    Uiso  ? O
   O321       1.0     0.515841     0.111377     0.607181    Uiso  ? O
   O322       1.0     0.420364     0.134836     0.468332    Uiso  ? O
   O323       1.0     0.439134     0.818501     0.474419    Uiso  ? O
   O324       1.0     0.527891     0.192131     0.476056    Uiso  ? O
   Zn61       1.0     0.400735     0.864034     0.589110    Uiso  ? Zn
   Zn62       1.0     0.360621     0.853265     0.622027    Uiso  ? Zn
   Zn63       1.0     0.435312     0.203255     0.570573    Uiso  ? Zn
   Zn64       1.0     0.413391     0.244067     0.592193    Uiso  ? Zn
   Zn65       1.0     0.525024     0.119905     0.640557    Uiso  ? Zn
   Zn66       1.0     0.533005     0.128214     0.693270    Uiso  ? Zn
   Zn67       1.0     0.398131     0.152721     0.445515    Uiso  ? Zn
   Zn68       1.0     0.358179     0.174842     0.421077    Uiso  ? Zn
   Zn69       1.0     0.405128     0.806575     0.462108    Uiso  ? Zn
   Zn70       1.0     0.363648     0.777847     0.445074    Uiso  ? Zn
   Zn71       1.0     0.521484     0.224490     0.461482    Uiso  ? Zn
   Zn72       1.0     0.520524     0.274647     0.441518    Uiso  ? Zn
   H337       1.0     0.471387     0.176408     0.559051    Uiso  ? H
   H338       1.0     0.458512     0.177486     0.534521    Uiso  ? H
   H339       1.0     0.529171     0.819846     0.454939    Uiso  ? H
   H340       1.0     0.548969     0.824434     0.475303    Uiso  ? H
   H341       1.0     0.492606     0.813807     0.558694    Uiso  ? H
   H342       1.0     0.490683     0.808166     0.530327    Uiso  ? H
   H343       1.0     0.579271     0.857295     0.544738    Uiso  ? H
   H344       1.0     0.594995     0.881484     0.553844    Uiso  ? H
   H345       1.0     0.542784     0.184887     0.469985    Uiso  ? H
   H346       1.0     0.521697     0.186924     0.490775    Uiso  ? H
   H347       1.0     0.572512     0.123261     0.454677    Uiso  ? H
   H348       1.0     0.575594     0.893813     0.438847    Uiso  ? H
   H349       1.0     0.570290     0.149801     0.562527    Uiso  ? H
   H350       1.0     0.570260     0.159662     0.534581    Uiso  ? H
   H351       1.0     0.424537     0.140368     0.484312    Uiso  ? H
   H352       1.0     0.426470     0.120581     0.461748    Uiso  ? H
   H353       1.0     0.494194     0.873557     0.415443    Uiso  ? H
   H354       1.0     0.519964     0.882711     0.406315    Uiso  ? H
   H355       1.0     0.440342     0.834762     0.480313    Uiso  ? H
   H356       1.0     0.453026     0.811383     0.467221    Uiso  ? H
   H357       1.0     0.523679     0.119376     0.593695    Uiso  ? H
   H358       1.0     0.502967     0.894921     0.605812    Uiso  ? H
   H359       1.0     0.422229     0.866483     0.544507    Uiso  ? H
   H360       1.0     0.435946     0.884112     0.561518    Uiso  ? H
   C577       1.0     0.412215     0.357519     0.171353    Uiso  ? C
   C578       1.0     0.432488     0.343070     0.178753    Uiso  ? C
   C579       1.0     0.428999     0.322927     0.192282    Uiso  ? C
   H361       1.0     0.412382     0.314395     0.192161    Uiso  ? H
   C580       1.0     0.447249     0.313513     0.205869    Uiso  ? C
   H362       1.0     0.444420     0.298785     0.217216    Uiso  ? H
   C581       1.0     0.469412     0.323617     0.204237    Uiso  ? C
   H363       1.0     0.483171     0.316419     0.214624    Uiso  ? H
   C582       1.0     0.474162     0.343464     0.189880    Uiso  ? C
   C583       1.0     0.455334     0.352431     0.176023    Uiso  ? C
   H364       1.0     0.459269     0.368613     0.166943    Uiso  ? H
   C584       1.0     0.497613     0.354346     0.190274    Uiso  ? C
   C585       1.0     0.376789     0.414565     0.191255    Uiso  ? C
   C586       1.0     0.372261     0.430645     0.210771    Uiso  ? C
   C587       1.0     0.352343     0.427548     0.225177    Uiso  ? C
   H365       1.0     0.337820     0.415336     0.219769    Uiso  ? H
   C588       1.0     0.350764     0.437784     0.247533    Uiso  ? C
   H366       1.0     0.336163     0.433972     0.259712    Uiso  ? H
   C589       1.0     0.366829     0.455168     0.254680    Uiso  ? C
   H367       1.0     0.365292     0.463288     0.272068    Uiso  ? H
   C590       1.0     0.386106     0.461038     0.238889    Uiso  ? C
   C591       1.0     0.388918     0.447950     0.217625    Uiso  ? C
   H368       1.0     0.402397     0.451207     0.204793    Uiso  ? H
   C592       1.0     0.404408     0.478431     0.244569    Uiso  ? C
   C593       1.0     0.351561     0.396950     0.117735    Uiso  ? C
   C594       1.0     0.338929     0.398323     0.895630    Uiso  ? C
   C595       1.0     0.324134     0.380750     0.886336    Uiso  ? C
   H369       1.0     0.319992     0.365097     0.896449    Uiso  ? H
   C596       1.0     0.314507     0.383196     0.863133    Uiso  ? C
   H370       1.0     0.302343     0.369704     0.856733    Uiso  ? H
   C597       1.0     0.321259     0.402422     0.849692    Uiso  ? C
   H371       1.0     0.315426     0.401964     0.831940    Uiso  ? H
   C598       1.0     0.335424     0.420225     0.858386    Uiso  ? C
   C599       1.0     0.344603     0.418091     0.880593    Uiso  ? C
   H372       1.0     0.355993     0.432694     0.886890    Uiso  ? H
   C600       1.0     0.341183     0.441104     0.844127    Uiso  ? C
   C601       1.0     0.393890     0.359987     0.119390    Uiso  ? C
   C602       1.0     0.401306     0.342913     0.102271    Uiso  ? C
   C603       1.0     0.391339     0.321023     0.100166    Uiso  ? C
   H373       1.0     0.378668     0.315171     0.113065    Uiso  ? H
   C604       1.0     0.397475     0.304942     0.881306    Uiso  ? C
   H374       1.0     0.386804     0.289318     0.877439    Uiso  ? H
   C605       1.0     0.413123     0.313000     0.864147    Uiso  ? C
   H375       1.0     0.416915     0.300943     0.850578    Uiso  ? H
   C606       1.0     0.424905     0.334827     0.867064    Uiso  ? C
   C607       1.0     0.419035     0.348422     0.886746    Uiso  ? C
   H376       1.0     0.426308     0.365570     0.887785    Uiso  ? H
   C608       1.0     0.443647     0.342920     0.849608    Uiso  ? C
   C609       1.0     0.571350     0.405274     0.210124    Uiso  ? C
   C610       1.0     0.588310     0.422986     0.219686    Uiso  ? C
   C611       1.0     0.599794     0.418852     0.241366    Uiso  ? C
   H377       1.0     0.597222     0.402894     0.249560    Uiso  ? H
   C612       1.0     0.616911     0.434763     0.249563    Uiso  ? C
   H378       1.0     0.625707     0.430275     0.266590    Uiso  ? H
   C613       1.0     0.622184     0.455471     0.236139    Uiso  ? C
   H379       1.0     0.635964     0.466871     0.242299    Uiso  ? H
   C614       1.0     0.608578     0.461297     0.216997    Uiso  ? C
   C615       1.0     0.591530     0.445265     0.208381    Uiso  ? C
   H380       1.0     0.581026     0.449918     0.193822    Uiso  ? H
   C616       1.0     0.611881     0.484183     0.205660    Uiso  ? C
   C617       1.0     0.523137     0.407327     0.233325    Uiso  ? C
   C618       1.0     0.517614     0.425595     0.252750    Uiso  ? C
   C619       1.0     0.528686     0.425044     0.274899    Uiso  ? C
   H381       1.0     0.542829     0.413037     0.278735    Uiso  ? H
   C620       1.0     0.522501     0.441402     0.291757    Uiso  ? C
   H382       1.0     0.532433     0.440664     0.308130    Uiso  ? H
   C621       1.0     0.503490     0.457504     0.288117    Uiso  ? C
   H383       1.0     0.500430     0.470482     0.301760    Uiso  ? H
   C622       1.0     0.491194     0.457309     0.266935    Uiso  ? C
   C623       1.0     0.497513     0.440471     0.250107    Uiso  ? C
   H384       1.0     0.487800     0.439682     0.233204    Uiso  ? H
   C624       1.0     0.473516     0.474035     0.262537    Uiso  ? C
   C625       1.0     0.572853     0.365961     0.170151    Uiso  ? C
   C626       1.0     0.591949     0.359222     0.154605    Uiso  ? C
   C627       1.0     0.600042     0.335837     0.153457    Uiso  ? C
   H385       1.0     0.594400     0.323562     0.166018    Uiso  ? H
   C628       1.0     0.615951     0.328339     0.136003    Uiso  ? C
   H386       1.0     0.621892     0.310887     0.135346    Uiso  ? H
   C629       1.0     0.623628     0.344244     0.119534    Uiso  ? C
   H387       1.0     0.635049     0.337047     0.105414    Uiso  ? H
   C630       1.0     0.615060     0.368005     0.119101    Uiso  ? C
   C631       1.0     0.600435     0.375381     0.136885    Uiso  ? C
   H388       1.0     0.590213     0.391809     0.135638    Uiso  ? H
   C632       1.0     0.619413     0.382013     0.897796    Uiso  ? C
   C633       1.0     0.456395     0.549727     0.255815    Uiso  ? C
   C634       1.0     0.463714     0.575584     0.255713    Uiso  ? C
   C635       1.0     0.457401     0.589125     0.274385    Uiso  ? C
   H389       1.0     0.448584     0.583292     0.289992    Uiso  ? H
   C636       1.0     0.462383     0.612918     0.274554    Uiso  ? C
   H390       1.0     0.456557     0.623168     0.289501    Uiso  ? H
   C637       1.0     0.475764     0.623177     0.256495    Uiso  ? C
   H391       1.0     0.479746     0.641633     0.258786    Uiso  ? H
   C638       1.0     0.483442     0.608872     0.236998    Uiso  ? C
   C639       1.0     0.477009     0.585012     0.236339    Uiso  ? C
   H392       1.0     0.482261     0.573679     0.222263    Uiso  ? H
   C640       1.0     0.493879     0.619705     0.214923    Uiso  ? C
   C641       1.0     0.406228     0.530843     0.239214    Uiso  ? C
   C642       1.0     0.386518     0.547127     0.233419    Uiso  ? C
   C643       1.0     0.370375     0.554819     0.250414    Uiso  ? C
   H393       1.0     0.369852     0.550192     0.268828    Uiso  ? H
   C644       1.0     0.353509     0.569599     0.244665    Uiso  ? C
   H394       1.0     0.339093     0.574999     0.257886    Uiso  ? H
   C645       1.0     0.349128     0.575874     0.221270    Uiso  ? C
   H395       1.0     0.333679     0.585987     0.215372    Uiso  ? H
   C646       1.0     0.364130     0.567152     0.203481    Uiso  ? C
   C647       1.0     0.382624     0.551724     0.209232    Uiso  ? C
   H396       1.0     0.394844     0.543222     0.195955    Uiso  ? H
   C648       1.0     0.360368     0.571564     0.178668    Uiso  ? C
   C649       1.0     0.642514     0.434437     0.892336    Uiso  ? C
   C650       1.0     0.656711     0.446404     0.110802    Uiso  ? C
   C651       1.0     0.680895     0.442622     0.113925    Uiso  ? C
   H397       1.0     0.690445     0.431977     0.102174    Uiso  ? H
   C652       1.0     0.693765     0.453934     0.132057    Uiso  ? C
   H398       1.0     0.711813     0.449745     0.133306    Uiso  ? H
   C653       1.0     0.683061     0.471308     0.145795    Uiso  ? C
   H399       1.0     0.694091     0.479389     0.157565    Uiso  ? H
   C654       1.0     0.658718     0.475325     0.143155    Uiso  ? C
   C655       1.0     0.645371     0.460814     0.127071    Uiso  ? C
   H400       1.0     0.626848     0.462116     0.127706    Uiso  ? H
   C656       1.0     0.646255     0.491261     0.158954    Uiso  ? C
   C657       1.0     0.593273     0.374507     0.852136    Uiso  ? C
   C658       1.0     0.578110     0.353889     0.846718    Uiso  ? C
   C659       1.0     0.585762     0.331089     0.848923    Uiso  ? C
   H401       1.0     0.602349     0.327138     0.856217    Uiso  ? H
   C660       1.0     0.570446     0.311662     0.844180    Uiso  ? C
   H402       1.0     0.577411     0.293933     0.846815    Uiso  ? H
   C661       1.0     0.547740     0.315044     0.837232    Uiso  ? C
   H403       1.0     0.537130     0.299347     0.837929    Uiso  ? H
   C662       1.0     0.539227     0.338774     0.836910    Uiso  ? C
   C663       1.0     0.555087     0.357713     0.839558    Uiso  ? C
   H404       1.0     0.549164     0.376298     0.837320    Uiso  ? H
   C664       1.0     0.514422     0.344721     0.831514    Uiso  ? C
   C665       1.0     0.432476     0.372351     0.805784    Uiso  ? C
   C666       1.0     0.409766     0.379317     0.795321    Uiso  ? C
   C667       1.0     0.397195     0.363701     0.780720    Uiso  ? C
   H405       1.0     0.403102     0.345966     0.775933    Uiso  ? H
   C668       1.0     0.374872     0.370206     0.772752    Uiso  ? C
   H406       1.0     0.365125     0.359192     0.760795    Uiso  ? H
   C669       1.0     0.364396     0.391992     0.780047    Uiso  ? C
   H407       1.0     0.346612     0.396216     0.774158    Uiso  ? H
   C670       1.0     0.378073     0.409294     0.791675    Uiso  ? C
   C671       1.0     0.400653     0.401800     0.799677    Uiso  ? C
   H408       1.0     0.412310     0.412503     0.811360    Uiso  ? H
   C672       1.0     0.369180     0.432444     0.798446    Uiso  ? C
   O325       1.0     0.414609     0.376620     0.159920    Uiso  ? O
   O326       1.0     0.391240     0.350066     0.174273    Uiso  ? O
   O327       1.0     0.394858     0.416088     0.178468    Uiso  ? O
   O328       1.0     0.361824     0.399242     0.186102    Uiso  ? O
   O329       1.0     0.364495     0.413681     0.124667    Uiso  ? O
   O330       1.0     0.352016     0.377115     0.129352    Uiso  ? O
   O331       1.0     0.408420     0.374400     0.128799    Uiso  ? O
   O332       1.0     0.372828     0.359178     0.127610    Uiso  ? O
   O333       1.0     0.562811     0.407644     0.189483    Uiso  ? O
   O334       1.0     0.563629     0.388497     0.223618    Uiso  ? O
   O335       1.0     0.516406     0.410283     0.212519    Uiso  ? O
   O336       1.0     0.536711     0.390712     0.238227    Uiso  ? O
   O337       1.0     0.505166     0.369671     0.175029    Uiso  ? O
   O338       1.0     0.509492     0.351193     0.209374    Uiso  ? O
   O339       1.0     0.563066     0.385997     0.168312    Uiso  ? O
   O340       1.0     0.564663     0.352061     0.186662    Uiso  ? O
   O341       1.0     0.464790     0.536870     0.239862    Uiso  ? O
   O342       1.0     0.440603     0.541982     0.269636    Uiso  ? O
   O343       1.0     0.416069     0.518610     0.222903    Uiso  ? O
   O344       1.0     0.413822     0.530429     0.260101    Uiso  ? O
   O345       1.0     0.416917     0.487463     0.227258    Uiso  ? O
   O346       1.0     0.408089     0.482836     0.265881    Uiso  ? O
   O347       1.0     0.463609     0.473813     0.242355    Uiso  ? O
   O348       1.0     0.467692     0.489644     0.277098    Uiso  ? O
   O349       1.0     0.620629     0.430373     0.895271    Uiso  ? O
   O350       1.0     0.652539     0.426454     0.874344    Uiso  ? O
   O351       1.0     0.611537     0.402996     0.895766    Uiso  ? O
   O352       1.0     0.629700     0.373336     0.880019    Uiso  ? O
   O353       1.0     0.584876     0.394506     0.854775    Uiso  ? O
   O354       1.0     0.615819     0.371789     0.852830    Uiso  ? O
   O355       1.0     0.618082     0.437530     0.834901    Uiso  ? O
   O356       1.0     0.636683     0.406992     0.821336    Uiso  ? O
   O357       1.0     0.507356     0.365956     0.832373    Uiso  ? O
   O358       1.0     0.500710     0.329425     0.822082    Uiso  ? O
   O359       1.0     0.456274     0.360303     0.854879    Uiso  ? O
   O360       1.0     0.443705     0.334657     0.829139    Uiso  ? O
   O361       1.0     0.447430     0.388362     0.810946    Uiso  ? O
   O362       1.0     0.438324     0.350936     0.805731    Uiso  ? O
   O363       1.0     0.477303     0.390973     0.794569    Uiso  ? O
   O364       1.0     0.478319     0.357702     0.775892    Uiso  ? O
   O365       1.0     0.617240     0.539697     0.145508    Uiso  ? O
   O366       1.0     0.653403     0.538567     0.161952    Uiso  ? O
   O367       1.0     0.595496     0.543613     0.198324    Uiso  ? O
   O368       1.0     0.629929     0.558388     0.200442    Uiso  ? O
   O369       1.0     0.606446     0.486805     0.184163    Uiso  ? O
   O370       1.0     0.623969     0.499428     0.214935    Uiso  ? O
   O371       1.0     0.624261     0.492169     0.160569    Uiso  ? O
   O372       1.0     0.658493     0.506913     0.169241    Uiso  ? O
   O373       1.0     0.417845     0.431574     0.131062    Uiso  ? O
   O374       1.0     0.511154     0.420192     0.155203    Uiso  ? O
   O375       1.0     0.470303     0.500636     0.196333    Uiso  ? O
   O376       1.0     0.576658     0.450583     0.869561    Uiso  ? O
   O377       1.0     0.482641     0.411598     0.853419    Uiso  ? O
   O378       1.0     0.564230     0.515422     0.164115    Uiso  ? O
   Zn73       1.0     0.396140     0.405859     0.143876    Uiso  ? Zn
   Zn74       1.0     0.363697     0.369181     0.163791    Uiso  ? Zn
   Zn75       1.0     0.527285     0.397471     0.179498    Uiso  ? Zn
   Zn76       1.0     0.544410     0.359366     0.215537    Uiso  ? Zn
   Zn77       1.0     0.450143     0.505735     0.228098    Uiso  ? Zn
   Zn78       1.0     0.435636     0.505450     0.280589    Uiso  ? Zn
   Zn79       1.0     0.602278     0.424445     0.865666    Uiso  ? Zn
   Zn80       1.0     0.645767     0.396925     0.854102    Uiso  ? Zn
   Zn81       1.0     0.475072     0.381574     0.833090    Uiso  ? Zn
   Zn82       1.0     0.471788     0.335631     0.803219    Uiso  ? Zn
   Zn83       1.0     0.600247     0.519195     0.171456    Uiso  ? Zn
   Zn84       1.0     0.645202     0.525392     0.198938    Uiso  ? Zn
   C673       1.0     0.566069     0.624988     0.813929    Uiso  ? C
   C674       1.0     0.546720     0.636828     0.799654    Uiso  ? C
   C675       1.0     0.553183     0.651864     0.780799    Uiso  ? C
   H409       1.0     0.571232     0.656292     0.776988    Uiso  ? H
   C676       1.0     0.535591     0.661296     0.765894    Uiso  ? C
   H410       1.0     0.538336     0.676272     0.754216    Uiso  ? H
   C677       1.0     0.512612     0.654192     0.767848    Uiso  ? C
   H411       1.0     0.500025     0.662257     0.755642    Uiso  ? H
   C678       1.0     0.506149     0.640719     0.787629    Uiso  ? C
   C679       1.0     0.522823     0.630406     0.802684    Uiso  ? C
   H412       1.0     0.518186     0.618266     0.816579    Uiso  ? H
   C680       1.0     0.481569     0.633853     0.791574    Uiso  ? C
   C681       1.0     0.600197     0.583336     0.799532    Uiso  ? C
   C682       1.0     0.597097     0.573518     0.775657    Uiso  ? C
   C683       1.0     0.601687     0.586996     0.755489    Uiso  ? C
   H413       1.0     0.607590     0.604114     0.757554    Uiso  ? H
   C684       1.0     0.595854     0.578480     0.733020    Uiso  ? C
   H414       1.0     0.597954     0.589709     0.715963    Uiso  ? H
   C685       1.0     0.585362     0.556738     0.730247    Uiso  ? C
   H415       1.0     0.578776     0.551763     0.712042    Uiso  ? H
   C686       1.0     0.580617     0.543342     0.749811    Uiso  ? C
   C687       1.0     0.587648     0.550822     0.772162    Uiso  ? C
   H416       1.0     0.583577     0.539375     0.787199    Uiso  ? H
   C688       1.0     0.566411     0.522580     0.746782    Uiso  ? C
   C689       1.0     0.625779     0.584234     0.868272    Uiso  ? C
   C690       1.0     0.642211     0.573846     0.886565    Uiso  ? C
   C691       1.0     0.666245     0.572349     0.881924    Uiso  ? C
   H417       1.0     0.673736     0.575270     0.864481    Uiso  ? H
   C692       1.0     0.681150     0.561974     0.898046    Uiso  ? C
   H418       1.0     0.699535     0.559078     0.892764    Uiso  ? H
   C693       1.0     0.671794     0.553701     0.118388    Uiso  ? C
   H419       1.0     0.684680     0.545447     0.130234    Uiso  ? H
   C694       1.0     0.647739     0.556321     0.123877    Uiso  ? C
   C695       1.0     0.632323     0.565177     0.106950    Uiso  ? C
   H420       1.0     0.612965     0.565555     0.108055    Uiso  ? H
   C696       1.0     0.639131     0.545685     0.145238    Uiso  ? C
   C697       1.0     0.577403     0.638908     0.865170    Uiso  ? C
   C698       1.0     0.565499     0.656824     0.879957    Uiso  ? C
   C699       1.0     0.569862     0.680902     0.877353    Uiso  ? C
   H421       1.0     0.581790     0.687957     0.863800    Uiso  ? H
   C700       1.0     0.557046     0.696784     0.890681    Uiso  ? C
   H422       1.0     0.559318     0.715505     0.887244    Uiso  ? H
   C701       1.0     0.542273     0.690682     0.109150    Uiso  ? C
   H423       1.0     0.533942     0.704561     0.116956    Uiso  ? H
   C702       1.0     0.539937     0.666257     0.113489    Uiso  ? C
   C703       1.0     0.550933     0.648913     0.898611    Uiso  ? C
   H424       1.0     0.549229     0.630341     0.100022    Uiso  ? H
   C704       1.0     0.526894     0.656982     0.135358    Uiso  ? C
   C705       1.0     0.408551     0.586496     0.773144    Uiso  ? C
   C706       1.0     0.391825     0.568328     0.765147    Uiso  ? C
   C707       1.0     0.382811     0.568649     0.742196    Uiso  ? C
   H425       1.0     0.388814     0.583563     0.730979    Uiso  ? H
   C708       1.0     0.367051     0.551565     0.733939    Uiso  ? C
   H426       1.0     0.359111     0.554365     0.717502    Uiso  ? H
   C709       1.0     0.361459     0.532295     0.748522    Uiso  ? C
   H427       1.0     0.348371     0.519777     0.742087    Uiso  ? H
   C710       1.0     0.370164     0.531486     0.771736    Uiso  ? C
   C711       1.0     0.384261     0.550439     0.780290    Uiso  ? C
   H428       1.0     0.390536     0.549148     0.798567    Uiso  ? H
   C712       1.0     0.365336     0.511082     0.786410    Uiso  ? C
   C713       1.0     0.458371     0.591394     0.761036    Uiso  ? C
   C714       1.0     0.475535     0.580973     0.744960    Uiso  ? C
   C715       1.0     0.479329     0.591649     0.722459    Uiso  ? C
   H429       1.0     0.469681     0.607435     0.718109    Uiso  ? H
   C716       1.0     0.493367     0.580355     0.705598    Uiso  ? C
   H430       1.0     0.497219     0.588635     0.689557    Uiso  ? H
   C717       1.0     0.505038     0.559673     0.710764    Uiso  ? C
   H431       1.0     0.517536     0.552819     0.698307    Uiso  ? H
   C718       1.0     0.501869     0.549197     0.733863    Uiso  ? C
   C719       1.0     0.487648     0.559743     0.750624    Uiso  ? C
   H432       1.0     0.484571     0.550558     0.767802    Uiso  ? H
   C720       1.0     0.512087     0.526001     0.737346    Uiso  ? C
   C721       1.0     0.411544     0.629617     0.828438    Uiso  ? C
   C722       1.0     0.396392     0.638825     0.846743    Uiso  ? C
   C723       1.0     0.385083     0.660938     0.844560    Uiso  ? C
   H433       1.0     0.388552     0.670891     0.827716    Uiso  ? H
   C724       1.0     0.369116     0.668653     0.861184    Uiso  ? C
   H434       1.0     0.361127     0.684527     0.857692    Uiso  ? H
   C725       1.0     0.361077     0.653199     0.878471    Uiso  ? C
   H435       1.0     0.347302     0.658440     0.890722    Uiso  ? H
   C726       1.0     0.372810     0.631483     0.880948    Uiso  ? C
   C727       1.0     0.390983     0.624050     0.865393    Uiso  ? C
   H436       1.0     0.397677     0.606824     0.865161    Uiso  ? H
   C728       1.0     0.367261     0.613421     0.899456    Uiso  ? C
   C729       1.0     0.508754     0.451126     0.735754    Uiso  ? C
   C730       1.0     0.494076     0.429201     0.734201    Uiso  ? C
   C731       1.0     0.486701     0.420139     0.712868    Uiso  ? C
   H437       1.0     0.489460     0.430782     0.696300    Uiso  ? H
   C732       1.0     0.474079     0.399353     0.712531    Uiso  ? C
   H438       1.0     0.467452     0.395402     0.694541    Uiso  ? H
   C733       1.0     0.472155     0.384949     0.732418    Uiso  ? C
   H439       1.0     0.462786     0.367820     0.730398    Uiso  ? H
   C734       1.0     0.480863     0.393300     0.753594    Uiso  ? C
   C735       1.0     0.490187     0.415560     0.754751    Uiso  ? C
   H440       1.0     0.496736     0.421216     0.772016    Uiso  ? H
   C736       1.0     0.479944     0.379551     0.775613    Uiso  ? C
   C737       1.0     0.578381     0.468286     0.757013    Uiso  ? C
   C738       1.0     0.600375     0.456281     0.763966    Uiso  ? C
   C739       1.0     0.617122     0.451497     0.746747    Uiso  ? C
   H441       1.0     0.615810     0.457703     0.729081    Uiso  ? H
   C740       1.0     0.638651     0.440618     0.754335    Uiso  ? C
   H442       1.0     0.653465     0.442367     0.742281    Uiso  ? H
   C741       1.0     0.641846     0.431465     0.776197    Uiso  ? C
   H443       1.0     0.659562     0.423910     0.781435    Uiso  ? H
   C742       1.0     0.624907     0.435060     0.792988    Uiso  ? C
   C743       1.0     0.603910     0.447539     0.786914    Uiso  ? C
   H444       1.0     0.589752     0.449402     0.799641    Uiso  ? H
   C744       1.0     0.628061     0.427019     0.817814    Uiso  ? C
   C745       1.0     0.331622     0.553564     0.110768    Uiso  ? C
   C746       1.0     0.317471     0.537067     0.896921    Uiso  ? C
   C747       1.0     0.293549     0.542299     0.893436    Uiso  ? C
   H445       1.0     0.284882     0.555648     0.103794    Uiso  ? H
   C748       1.0     0.280528     0.530570     0.875381    Uiso  ? C
   H446       1.0     0.263666     0.535061     0.871839    Uiso  ? H
   C749       1.0     0.291501     0.514643     0.860129    Uiso  ? C
   H447       1.0     0.281800     0.506997     0.845819    Uiso  ? H
   C750       1.0     0.315389     0.508929     0.862700    Uiso  ? C
   C751       1.0     0.327872     0.521394     0.879695    Uiso  ? C
   H448       1.0     0.347799     0.519712     0.882473    Uiso  ? H
   C752       1.0     0.327263     0.495051     0.844176    Uiso  ? C
   C753       1.0     0.380641     0.617326     0.152852    Uiso  ? C
   C754       1.0     0.395601     0.633612     0.166698    Uiso  ? C
   C755       1.0     0.386488     0.646588     0.185575    Uiso  ? C
   H449       1.0     0.367903     0.645626     0.189047    Uiso  ? H
   C756       1.0     0.401484     0.660808     0.198660    Uiso  ? C
   H450       1.0     0.392293     0.672053     0.211199    Uiso  ? H
   C757       1.0     0.425389     0.661614     0.195196    Uiso  ? C
   H451       1.0     0.435338     0.673183     0.205881    Uiso  ? H
   C758       1.0     0.435273     0.649780     0.175802    Uiso  ? C
   C759       1.0     0.420283     0.635489     0.161787    Uiso  ? C
   H452       1.0     0.427358     0.625700     0.147426    Uiso  ? H
   C760       1.0     0.462001     0.646672     0.174813    Uiso  ? C
   C761       1.0     0.545667     0.623296     0.196115    Uiso  ? C
   C762       1.0     0.567617     0.614273     0.207637    Uiso  ? C
   C763       1.0     0.580262     0.627286     0.225050    Uiso  ? C
   H453       1.0     0.572115     0.642915     0.232316    Uiso  ? H
   C764       1.0     0.600622     0.618721     0.235688    Uiso  ? C
   H454       1.0     0.607896     0.628784     0.250472    Uiso  ? H
   C765       1.0     0.610771     0.598572     0.226857    Uiso  ? C
   H455       1.0     0.627147     0.591318     0.234512    Uiso  ? H
   C766       1.0     0.598676     0.584290     0.210192    Uiso  ? C
   C767       1.0     0.577617     0.592722     0.200599    Uiso  ? C
   H456       1.0     0.571172     0.583137     0.186282    Uiso  ? H
   C768       1.0     0.608675     0.561513     0.202732    Uiso  ? C
   O379       1.0     0.560071     0.614002     0.832970    Uiso  ? O
   O380       1.0     0.587957     0.626774     0.809094    Uiso  ? O
   O381       1.0     0.591780     0.571798     0.816786    Uiso  ? O
   O382       1.0     0.608032     0.604250     0.800798    Uiso  ? O
   O383       1.0     0.604270     0.583012     0.871679    Uiso  ? O
   O384       1.0     0.633645     0.595634     0.850733    Uiso  ? O
   O385       1.0     0.566909     0.619800     0.859800    Uiso  ? O
   O386       1.0     0.597470     0.643837     0.856721    Uiso  ? O
   O387       1.0     0.423595     0.580390     0.789703    Uiso  ? O
   O388       1.0     0.408729     0.606622     0.763876    Uiso  ? O
   O389       1.0     0.452302     0.579670     0.778884    Uiso  ? O
   O390       1.0     0.455733     0.613562     0.760209    Uiso  ? O
   O391       1.0     0.476972     0.618379     0.806689    Uiso  ? O
   O392       1.0     0.466260     0.638309     0.776320    Uiso  ? O
   O393       1.0     0.418586     0.608308     0.829225    Uiso  ? O
   O394       1.0     0.417523     0.643042     0.811386    Uiso  ? O
   O395       1.0     0.515890     0.457702     0.755781    Uiso  ? O
   O396       1.0     0.517292     0.461358     0.718062    Uiso  ? O
   O397       1.0     0.566649     0.480598     0.772045    Uiso  ? O
   O398       1.0     0.573735     0.468651     0.735652    Uiso  ? O
   O399       1.0     0.559594     0.510742     0.764327    Uiso  ? O
   O400       1.0     0.556534     0.518670     0.727064    Uiso  ? O
   O401       1.0     0.508642     0.515547     0.756765    Uiso  ? O
   O402       1.0     0.526434     0.516895     0.722421    Uiso  ? O
   O403       1.0     0.353102     0.557132     0.105599    Uiso  ? O
   O404       1.0     0.324379     0.562242     0.129729    Uiso  ? O
   O405       1.0     0.382775     0.600912     0.107205    Uiso  ? O
   O406       1.0     0.346665     0.613884     0.107472    Uiso  ? O
   O407       1.0     0.390054     0.605058     0.137541    Uiso  ? O
   O408       1.0     0.360136     0.611731     0.160839    Uiso  ? O
   O409       1.0     0.372340     0.560888     0.163568    Uiso  ? O
   O410       1.0     0.347491     0.588651     0.172365    Uiso  ? O
   O411       1.0     0.471438     0.631888     0.160784    Uiso  ? O
   O412       1.0     0.474961     0.656584     0.189992    Uiso  ? O
   O413       1.0     0.529366     0.635191     0.140642    Uiso  ? O
   O414       1.0     0.514343     0.669761     0.148943    Uiso  ? O
   O415       1.0     0.530382     0.609442     0.188096    Uiso  ? O
   O416       1.0     0.540104     0.644765     0.197439    Uiso  ? O
   O417       1.0     0.503224     0.606808     0.198631    Uiso  ? O
   O418       1.0     0.489715     0.641695     0.211800    Uiso  ? O
   O419       1.0     0.354392     0.458635     0.851462    Uiso  ? O
   O420       1.0     0.334311     0.441400     0.822739    Uiso  ? O
   O421       1.0     0.383703     0.447024     0.806458    Uiso  ? O
   O422       1.0     0.347401     0.437481     0.799215    Uiso  ? O
   O423       1.0     0.372388     0.509691     0.807987    Uiso  ? O
   O424       1.0     0.355487     0.492389     0.777546    Uiso  ? O
   O425       1.0     0.347373     0.487007     0.849476    Uiso  ? O
   O426       1.0     0.318363     0.492433     0.823415    Uiso  ? O
   O427       1.0     0.556043     0.562360     0.858832    Uiso  ? O
   O428       1.0     0.455388     0.582295     0.842113    Uiso  ? O
   O429       1.0     0.521396     0.479366     0.802633    Uiso  ? O
   O430       1.0     0.405535     0.550798     0.117127    Uiso  ? O
   O431       1.0     0.498629     0.588665     0.143637    Uiso  ? O
   O432       1.0     0.406688     0.485069     0.838748    Uiso  ? O
   Zn85       1.0     0.579755     0.587348     0.847912    Uiso  ? Zn
   Zn86       1.0     0.616097     0.622779     0.832744    Uiso  ? Zn
   Zn87       1.0     0.447106     0.599313     0.810686    Uiso  ? Zn
   Zn88       1.0     0.428697     0.634862     0.777273    Uiso  ? Zn
   Zn89       1.0     0.530818     0.488227     0.768917    Uiso  ? Zn
   Zn90       1.0     0.546115     0.484396     0.717167    Uiso  ? Zn
   Zn91       1.0     0.378171     0.570312     0.127726    Uiso  ? Zn
   Zn92       1.0     0.335027     0.596435     0.138311    Uiso  ? Zn
   Zn93       1.0     0.505379     0.618177     0.162106    Uiso  ? Zn
   Zn94       1.0     0.510680     0.664328     0.186697    Uiso  ? Zn
   Zn95       1.0     0.374683     0.477299     0.825757    Uiso  ? Zn
   Zn96       1.0     0.331312     0.470206     0.797208    Uiso  ? Zn
   H457       1.0     0.464031     0.591255     0.853944    Uiso  ? H
   H458       1.0     0.452011     0.566337     0.844673    Uiso  ? H
   H459       1.0     0.506636     0.413669     0.139304    Uiso  ? H
   H460       1.0     0.516925     0.436690     0.154886    Uiso  ? H
   H461       1.0     0.555347     0.528022     0.158693    Uiso  ? H
   H462       1.0     0.557564     0.500136     0.166360    Uiso  ? H
   H463       1.0     0.561488     0.450936     0.862446    Uiso  ? H
   H464       1.0     0.579971     0.459344     0.883734    Uiso  ? H
   H465       1.0     0.421312     0.484482     0.829882    Uiso  ? H
   H466       1.0     0.405920     0.494115     0.853113    Uiso  ? H
   H467       1.0     0.415581     0.448027     0.134958    Uiso  ? H
   H468       1.0     0.424213     0.426637     0.115908    Uiso  ? H
   H469       1.0     0.498550     0.415227     0.852493    Uiso  ? H
   H470       1.0     0.472310     0.419408     0.864562    Uiso  ? H
   H471       1.0     0.404160     0.535928     0.109432    Uiso  ? H
   H472       1.0     0.419456     0.561270     0.117264    Uiso  ? H
   H473       1.0     0.486666     0.502187     0.199229    Uiso  ? H
   H474       1.0     0.463790     0.501844     0.180298    Uiso  ? H
   H475       1.0     0.511846     0.581439     0.135110    Uiso  ? H
   H476       1.0     0.486120     0.580313     0.150995    Uiso  ? H
   H477       1.0     0.529510     0.465732     0.809061    Uiso  ? H
   H478       1.0     0.509719     0.489757     0.811119    Uiso  ? H
   H479       1.0     0.563925     0.548951     0.867397    Uiso  ? H
   H480       1.0     0.538840     0.564862     0.860451    Uiso  ? H
   C769       1.0     0.517279     0.340369     0.407397    Uiso  ? C
   H481       1.0     0.519360     0.359303     0.409216    Uiso  ? H
   C770       1.0     0.512189     0.304116     0.395501    Uiso  ? C
   N1         1.0     0.512714     0.326858     0.388193    Uiso  ? N
   C771       1.0     0.507612     0.335851     0.364234    Uiso  ? C
   H482       1.0     0.490034     0.327508     0.358521    Uiso  ? H
   H483       1.0     0.503164     0.355040     0.365535    Uiso  ? H
   C772       1.0     0.527241     0.328451     0.346237    Uiso  ? C
   C773       1.0     0.527908     0.304775     0.338499    Uiso  ? C
   C774       1.0     0.542777     0.344770     0.336580    Uiso  ? C
   C775       1.0     0.543056     0.299373     0.320011    Uiso  ? C
   H484       1.0     0.517086     0.291299     0.345425    Uiso  ? H
   C776       1.0     0.558087     0.339242     0.317715    Uiso  ? C
   H485       1.0     0.541400     0.362581     0.341915    Uiso  ? H
   C777       1.0     0.559413     0.316169     0.310877    Uiso  ? C
   H486       1.0     0.542829     0.281686     0.312701    Uiso  ? H
   H487       1.0     0.568911     0.351765     0.308798    Uiso  ? H
   C778       1.0     0.577260     0.309173     0.291820    Uiso  ? C
   H488       1.0     0.593625     0.319632     0.295051    Uiso  ? H
   H489       1.0     0.580024     0.289579     0.295234    Uiso  ? H
   N2         1.0     0.566997     0.312340     0.267800    Uiso  ? N
   C779       1.0     0.559124     0.333508     0.259072    Uiso  ? C
   N3         1.0     0.555233     0.332029     0.235433    Uiso  ? N
   C780       1.0     0.559865     0.309676     0.229667    Uiso  ? C
   H490       1.0     0.561154     0.302910     0.210922    Uiso  ? H
   C781       1.0     0.568066     0.297334     0.249377    Uiso  ? C
   H491       1.0     0.576452     0.280629     0.250699    Uiso  ? H
   N4         1.0     0.517663     0.302595     0.418797    Uiso  ? N
   C782       1.0     0.520389     0.325437     0.425813    Uiso  ? C
   H492       1.0     0.524853     0.330571     0.442881    Uiso  ? H
   H493       1.0     0.509394     0.288860     0.384191    Uiso  ? H
   H494       1.0     0.558546     0.350158     0.267302    Uiso  ? H
   C783       1.0     0.481856     0.874108     0.242570    Uiso  ? C
   H495       1.0     0.475007     0.882429     0.227620    Uiso  ? H
   C784       1.0     0.488111     0.845947     0.265624    Uiso  ? C
   N5         1.0     0.486808     0.850847     0.242949    Uiso  ? N
   C785       1.0     0.485900     0.835229     0.222560    Uiso  ? C
   H496       1.0     0.467950     0.834144     0.214435    Uiso  ? H
   H497       1.0     0.498066     0.840715     0.208602    Uiso  ? H
   C786       1.0     0.492574     0.810478     0.228731    Uiso  ? C
   C787       1.0     0.475206     0.793261     0.234329    Uiso  ? C
   C788       1.0     0.516344     0.804538     0.231852    Uiso  ? C
   C789       1.0     0.481569     0.772216     0.245352    Uiso  ? C
   H498       1.0     0.457980     0.796573     0.229459    Uiso  ? H
   C790       1.0     0.522794     0.782180     0.239832    Uiso  ? C
   H499       1.0     0.530176     0.817649     0.228859    Uiso  ? H
   C791       1.0     0.506112     0.765575     0.245171    Uiso  ? C
   H500       1.0     0.468734     0.758941     0.249924    Uiso  ? H
   H501       1.0     0.539982     0.777062     0.242572    Uiso  ? H
   C792       1.0     0.514052     0.740511     0.250106    Uiso  ? C
   H502       1.0     0.530128     0.740420     0.261051    Uiso  ? H
   H503       1.0     0.499261     0.731807     0.259347    Uiso  ? H
   N6         1.0     0.518519     0.726160     0.228757    Uiso  ? N
   C793       1.0     0.507231     0.706568     0.221612    Uiso  ? C
   N7         1.0     0.517711     0.696013     0.203065    Uiso  ? N
   C794       1.0     0.537333     0.709192     0.199551    Uiso  ? C
   H504       1.0     0.548787     0.708308     0.184992    Uiso  ? H
   C795       1.0     0.538468     0.728682     0.215150    Uiso  ? C
   H505       1.0     0.549280     0.744610     0.213610    Uiso  ? H
   N8         1.0     0.485576     0.864099     0.280411    Uiso  ? N
   C796       1.0     0.481393     0.882947     0.265236    Uiso  ? C
   H506       1.0     0.478540     0.106288     0.270453    Uiso  ? H
   H507       1.0     0.492347     0.828433     0.271518    Uiso  ? H
   H508       1.0     0.491289     0.698691     0.228747    Uiso  ? H
   C797       1.0     0.405239     0.695077     0.739287    Uiso  ? C
   H509       1.0     0.392721     0.707482     0.733588    Uiso  ? H
   C798       1.0     0.438872     0.678749     0.747054    Uiso  ? C
   N9         1.0     0.428898     0.695297     0.734287    Uiso  ? N
   C799       1.0     0.439925     0.710648     0.716148    Uiso  ? C
   H510       1.0     0.430564     0.727190     0.714480    Uiso  ? H
   H511       1.0     0.458373     0.716422     0.723664    Uiso  ? H
   C800       1.0     0.442472     0.697323     0.693047    Uiso  ? C
   C801       1.0     0.459815     0.679034     0.690628    Uiso  ? C
   C802       1.0     0.424032     0.699793     0.676833    Uiso  ? C
   C803       1.0     0.459746     0.664773     0.671034    Uiso  ? C
   H512       1.0     0.471496     0.677196     0.705213    Uiso  ? H
   C804       1.0     0.424079     0.684455     0.657289    Uiso  ? C
   H513       1.0     0.410839     0.712310     0.678361    Uiso  ? H
   C805       1.0     0.441460     0.667317     0.654716    Uiso  ? C
   H514       1.0     0.474688     0.652718     0.668931    Uiso  ? H
   H515       1.0     0.408885     0.684631     0.644901    Uiso  ? H
   C806       1.0     0.442641     0.653568     0.631194    Uiso  ? C
   H516       1.0     0.446054     0.634223     0.634369    Uiso  ? H
   H517       1.0     0.426104     0.653250     0.620467    Uiso  ? H
   N10        1.0     0.460341     0.664058     0.616078    Uiso  ? N
   C807       1.0     0.458290     0.685848     0.605956    Uiso  ? C
   N11        1.0     0.479141     0.693034     0.597239    Uiso  ? N
   C808       1.0     0.494724     0.676402     0.602919    Uiso  ? C
   H518       1.0     0.514230     0.678349     0.600220    Uiso  ? H
   C809       1.0     0.483326     0.658900     0.615678    Uiso  ? C
   H519       1.0     0.491161     0.646676     0.625985    Uiso  ? H
   N12        1.0     0.422340     0.666523     0.760047    Uiso  ? N
   C810       1.0     0.401457     0.675981     0.754307    Uiso  ? C
   H520       1.0     0.386066     0.668930     0.761281    Uiso  ? H
   H521       1.0     0.457061     0.676043     0.746888    Uiso  ? H
   H522       1.0     0.442083     0.695823     0.604861    Uiso  ? H
   C811       1.0     0.557296     0.146127     0.759910    Uiso  ? C
   H523       1.0     0.569339     0.147160     0.774241    Uiso  ? H
   C812       1.0     0.527396     0.151013     0.738684    Uiso  ? C
   N13        1.0     0.535912     0.156084     0.759709    Uiso  ? N
   C813       1.0     0.525271     0.170921     0.777991    Uiso  ? C
   H524       1.0     0.511335     0.159629     0.786579    Uiso  ? H
   H525       1.0     0.539308     0.175111     0.791969    Uiso  ? H
   C814       1.0     0.514216     0.192828     0.768285    Uiso  ? C
   C815       1.0     0.490146     0.194540     0.765082    Uiso  ? C
   C816       1.0     0.528047     0.212481     0.764255    Uiso  ? C
   C817       1.0     0.479644     0.216568     0.759503    Uiso  ? C
   H526       1.0     0.478907     0.179124     0.766181    Uiso  ? H
   C818       1.0     0.517422     0.234355     0.759383    Uiso  ? C
   H527       1.0     0.546518     0.212140     0.765683    Uiso  ? H
   C819       1.0     0.493041     0.236912     0.756723    Uiso  ? C
   H528       1.0     0.460396     0.216951     0.757314    Uiso  ? H
   H529       1.0     0.529061     0.250055     0.757219    Uiso  ? H
   C820       1.0     0.481784     0.258513     0.746444    Uiso  ? C
   H530       1.0     0.494323     0.268863     0.735791    Uiso  ? H
   H531       1.0     0.467204     0.252081     0.734583    Uiso  ? H
   N14        1.0     0.474192     0.274330     0.765716    Uiso  ? N
   C821       1.0     0.480350     0.296524     0.769317    Uiso  ? C
   N15        1.0     0.468846     0.304248     0.788386    Uiso  ? N
   C822       1.0     0.453755     0.288110     0.794823    Uiso  ? C
   H532       1.0     0.441265     0.289212     0.808967    Uiso  ? H
   C823       1.0     0.457737     0.268640     0.780930    Uiso  ? C
   H533       1.0     0.450274     0.251507     0.783032    Uiso  ? H
   N16        1.0     0.541368     0.137509     0.725046    Uiso  ? N
   C824       1.0     0.560064     0.134909     0.738890    Uiso  ? C
   H534       1.0     0.575520     0.126829     0.733622    Uiso  ? H
   H535       1.0     0.511298     0.157610     0.732837    Uiso  ? H
   H536       1.0     0.495180     0.305836     0.761285    Uiso  ? H
   C825       1.0     0.829708     0.254951     0.522610    Uiso  ? C
   H537       1.0     0.836637     0.237931     0.528584    Uiso  ? H
   C826       1.0     0.805742     0.284149     0.514670    Uiso  ? C
   N17        1.0     0.806536     0.261182     0.519417    Uiso  ? N
   C827       1.0     0.785574     0.244986     0.518276    Uiso  ? C
   H538       1.0     0.781710     0.241859     0.498701    Uiso  ? H
   H539       1.0     0.791390     0.228141     0.525612    Uiso  ? H
   C828       1.0     0.767040     0.253778     0.534170    Uiso  ? C
   C829       1.0     0.746427     0.264286     0.524142    Uiso  ? C
   C830       1.0     0.771771     0.254972     0.558530    Uiso  ? C
   C831       1.0     0.729196     0.272726     0.539532    Uiso  ? C
   H540       1.0     0.742559     0.264712     0.505224    Uiso  ? H
   C832       1.0     0.754726     0.263969     0.573466    Uiso  ? C
   H541       1.0     0.788770     0.249685     0.565480    Uiso  ? H
   C833       1.0     0.733309     0.273548     0.563508    Uiso  ? C
   H542       1.0     0.715021     0.281549     0.533021    Uiso  ? H
   H543       1.0     0.757008     0.261236     0.592744    Uiso  ? H
   C834       1.0     0.712866     0.280017     0.578570    Uiso  ? C
   H544       1.0     0.717544     0.288674     0.595709    Uiso  ? H
   H545       1.0     0.700015     0.290211     0.567955    Uiso  ? H
   N18        1.0     0.701389     0.259027     0.585450    Uiso  ? N
   C835       1.0     0.683464     0.248754     0.574327    Uiso  ? C
   N19        1.0     0.675111     0.229846     0.586267    Uiso  ? N
   C836       1.0     0.687994     0.229606     0.607153    Uiso  ? C
   H546       1.0     0.686703     0.216484     0.619745    Uiso  ? H
   C837       1.0     0.704003     0.247451     0.606636    Uiso  ? C
   H547       1.0     0.717667     0.251261     0.618551    Uiso  ? H
   N20        1.0     0.826854     0.292787     0.514555    Uiso  ? N
   C838       1.0     0.842213     0.275133     0.518802    Uiso  ? C
   H548       1.0     0.861344     0.276619     0.518797    Uiso  ? H
   H549       1.0     0.789993     0.293897     0.510348    Uiso  ? H
   H550       1.0     0.675289     0.256363     0.558559    Uiso  ? H
   C839       1.0     0.622712     0.704401     0.373678    Uiso  ? C
   H551       1.0     0.625823     0.697894     0.356831    Uiso  ? H
   C840       1.0     0.625614     0.713433     0.410132    Uiso  ? C
   N21        1.0     0.635154     0.699191     0.393450    Uiso  ? N
   C841       1.0     0.655400     0.682809     0.397344    Uiso  ? C
   H552       1.0     0.651329     0.667266     0.387016    Uiso  ? H
   H553       1.0     0.671914     0.691276     0.390948    Uiso  ? H
   C842       1.0     0.657974     0.676613     0.423097    Uiso  ? C
   C843       1.0     0.674858     0.687969     0.438713    Uiso  ? C
   C844       1.0     0.640908     0.661709     0.433872    Uiso  ? C
   C845       1.0     0.675981     0.681710     0.462270    Uiso  ? C
   H554       1.0     0.686135     0.701931     0.432072    Uiso  ? H
   C846       1.0     0.641154     0.658076     0.457811    Uiso  ? C
   H555       1.0     0.627490     0.652766     0.423269    Uiso  ? H
   C847       1.0     0.659042     0.666909     0.472663    Uiso  ? C
   H556       1.0     0.686416     0.691702     0.474368    Uiso  ? H
   H557       1.0     0.627330     0.646234     0.465704    Uiso  ? H
   C848       1.0     0.657421     0.663590     0.498603    Uiso  ? C
   H558       1.0     0.651496     0.680707     0.505634    Uiso  ? H
   H559       1.0     0.643711     0.649098     0.502152    Uiso  ? H
   N22        1.0     0.679229     0.655482     0.508164    Uiso  ? N
   C849       1.0     0.689547     0.634566     0.504236    Uiso  ? C
   N23        1.0     0.707399     0.631143     0.518955    Uiso  ? N
   C850       1.0     0.709391     0.651054     0.531781    Uiso  ? C
   H560       1.0     0.721933     0.653700     0.544794    Uiso  ? H
   C851       1.0     0.691311     0.665070     0.526077    Uiso  ? C
   H561       1.0     0.686499     0.681471     0.535178    Uiso  ? H
   N24        1.0     0.608812     0.726902     0.402269    Uiso  ? N
   C852       1.0     0.605241     0.720030     0.379254    Uiso  ? C
   H562       1.0     0.593227     0.726711     0.366692    Uiso  ? H
   H563       1.0     0.633138     0.716820     0.426917    Uiso  ? H
   H564       1.0     0.682696     0.620865     0.492287    Uiso  ? H
   C853       1.0     0.304150     0.345980     0.472563    Uiso  ? C
   H565       1.0     0.309347     0.330508     0.462272    Uiso  ? H
   C854       1.0     0.306986     0.376636     0.495032    Uiso  ? C
   N25        1.0     0.317668     0.356572     0.489181    Uiso  ? N
   C855       1.0     0.340006     0.348855     0.498566    Uiso  ? C
   H566       1.0     0.348243     0.334788     0.488099    Uiso  ? H
   H567       1.0     0.353428     0.363687     0.497696    Uiso  ? H
   C856       1.0     0.338571     0.339968     0.523716    Uiso  ? C
   C857       1.0     0.337934     0.354567     0.542803    Uiso  ? C
   C858       1.0     0.336012     0.314704     0.528512    Uiso  ? C
   C859       1.0     0.339272     0.345286     0.567059    Uiso  ? C
   H568       1.0     0.340482     0.373817     0.539259    Uiso  ? H
   C860       1.0     0.335513     0.306581     0.551692    Uiso  ? C
   H569       1.0     0.333561     0.303065     0.514395    Uiso  ? H
   C861       1.0     0.338899     0.320809     0.570650    Uiso  ? C
   H570       1.0     0.336792     0.356600     0.582473    Uiso  ? H
   H571       1.0     0.334982     0.287920     0.556176    Uiso  ? H
   C862       1.0     0.341790     0.311664     0.595246    Uiso  ? C
   H572       1.0     0.340089     0.326668     0.608583    Uiso  ? H
   H573       1.0     0.327511     0.299340     0.599725    Uiso  ? H
   N26        1.0     0.365338     0.300028     0.597267    Uiso  ? N
   C863       1.0     0.369814     0.277372     0.594852    Uiso  ? C
   N27        1.0     0.393276     0.273423     0.597512    Uiso  ? N
   C864       1.0     0.403297     0.293936     0.601732    Uiso  ? C
   H574       1.0     0.421710     0.297237     0.602283    Uiso  ? H
   C865       1.0     0.385752     0.311305     0.600509    Uiso  ? C
   H575       1.0     0.388779     0.330853     0.600088    Uiso  ? H
   N28        1.0     0.286503     0.378620     0.483419    Uiso  ? N
   C866       1.0     0.285480     0.360259     0.468762    Uiso  ? C
   H576       1.0     0.273452     0.355302     0.455582    Uiso  ? H
   H577       1.0     0.313580     0.389233     0.507488    Uiso  ? H
   H578       1.0     0.356590     0.263529     0.591526    Uiso  ? H
   C867       1.0     0.169554     0.750550     0.460626    Uiso  ? C
   H579       1.0     0.165833     0.765026     0.449988    Uiso  ? H
   C868       1.0     0.187254     0.726074     0.484158    Uiso  ? C
   N29        1.0     0.189059     0.747068     0.474089    Uiso  ? N
   C869       1.0     0.210664     0.761531     0.474560    Uiso  ? C
   H580       1.0     0.207488     0.781493     0.474225    Uiso  ? H
   H581       1.0     0.221178     0.756615     0.490409    Uiso  ? H
   C870       1.0     0.228309     0.755380     0.454932    Uiso  ? C
   C871       1.0     0.237458     0.732715     0.450478    Uiso  ? C
   C872       1.0     0.238435     0.774776     0.442214    Uiso  ? C
   C873       1.0     0.254907     0.729678     0.432439    Uiso  ? C
   H582       1.0     0.230223     0.717632     0.459038    Uiso  ? H
   C874       1.0     0.255923     0.771419     0.424253    Uiso  ? C
   H583       1.0     0.231662     0.792574     0.444238    Uiso  ? H
   C875       1.0     0.263650     0.748691     0.419563    Uiso  ? C
   H584       1.0     0.262062     0.712847     0.429269    Uiso  ? H
   H585       1.0     0.261282     0.786030     0.414380    Uiso  ? H
   C876       1.0     0.284346     0.743964     0.403038    Uiso  ? C
   H586       1.0     0.282006     0.726828     0.393370    Uiso  ? H
   H587       1.0     0.283211     0.757728     0.389133    Uiso  ? H
   N30        1.0     0.306271     0.745068     0.416415    Uiso  ? N
   C877       1.0     0.318374     0.763596     0.423306    Uiso  ? C
   N31        1.0     0.339311     0.757686     0.431794    Uiso  ? N
   C878       1.0     0.341760     0.734138     0.427882    Uiso  ? C
   H588       1.0     0.355262     0.722389     0.431815    Uiso  ? H
   C879       1.0     0.320333     0.726167     0.418362    Uiso  ? C
   H589       1.0     0.315664     0.708059     0.413376    Uiso  ? H
   N32        1.0     0.167739     0.714362     0.477195    Uiso  ? N
   C880       1.0     0.156476     0.730474     0.463198    Uiso  ? C
   H590       1.0     0.139397     0.727470     0.454209    Uiso  ? H
   H591       1.0     0.198869     0.719366     0.497062    Uiso  ? H
   H592       1.0     0.312393     0.781276     0.422685    Uiso  ? H
   C881       1.0     0.692733     0.535651     0.250130    Uiso  ? C
   H593       1.0     0.701045     0.544977     0.263867    Uiso  ? H
   C882       1.0     0.682214     0.506932     0.227103    Uiso  ? C
   N33        1.0     0.695910     0.512075     0.245954    Uiso  ? N
   C883       1.0     0.709873     0.495367     0.258997    Uiso  ? C
   H594       1.0     0.715632     0.479528     0.247674    Uiso  ? H
   H595       1.0     0.726881     0.504684     0.265062    Uiso  ? H
   C884       1.0     0.695758     0.486916     0.280260    Uiso  ? C
   C885       1.0     0.692788     0.500909     0.300664    Uiso  ? C
   C886       1.0     0.685689     0.465235     0.280142    Uiso  ? C
   C887       1.0     0.683201     0.491458     0.321279    Uiso  ? C
   H596       1.0     0.701207     0.517346     0.302181    Uiso  ? H
   C888       1.0     0.674117     0.456170     0.300084    Uiso  ? C
   H597       1.0     0.687298     0.454492     0.264895    Uiso  ? H
   C889       1.0     0.675034     0.468038     0.322025    Uiso  ? C
   H598       1.0     0.682941     0.502442     0.337187    Uiso  ? H
   H599       1.0     0.667252     0.438985     0.298938    Uiso  ? H
   C890       1.0     0.664268     0.456457     0.343152    Uiso  ? C
   H600       1.0     0.655222     0.471619     0.353058    Uiso  ? H
   H601       1.0     0.649021     0.444867     0.338473    Uiso  ? H
   N34        1.0     0.682506     0.445839     0.357986    Uiso  ? N
   C891       1.0     0.699845     0.456276     0.369453    Uiso  ? C
   N35        1.0     0.710505     0.442050     0.384071    Uiso  ? N
   C892       1.0     0.699774     0.420637     0.381483    Uiso  ? C
   H602       1.0     0.704523     0.404513     0.389767    Uiso  ? H
   C893       1.0     0.682779     0.423009     0.364357    Uiso  ? C
   H603       1.0     0.670002     0.410253     0.359727    Uiso  ? H
   N36        1.0     0.670238     0.526089     0.220252    Uiso  ? N
   C894       1.0     0.677809     0.544262     0.232707    Uiso  ? C
   H604       1.0     0.670974     0.561937     0.230540    Uiso  ? H
   H605       1.0     0.678194     0.489836     0.221416    Uiso  ? H
   H606       1.0     0.705255     0.474648     0.365989    Uiso  ? H
   C895       1.0     0.425164     0.505284     0.352630    Uiso  ? C
   H607       1.0     0.431710     0.507314     0.370627    Uiso  ? H
   C896       1.0     0.405045     0.503729     0.321495    Uiso  ? C
   N37        1.0     0.403029     0.505694     0.345015    Uiso  ? N
   C897       1.0     0.382161     0.505001     0.359583    Uiso  ? C
   H608       1.0     0.379620     0.487666     0.367201    Uiso  ? H
   H609       1.0     0.384710     0.516573     0.373947    Uiso  ? H
   C898       1.0     0.360734     0.512937     0.347077    Uiso  ? C
   C899       1.0     0.342714     0.497203     0.339931    Uiso  ? C
   C900       1.0     0.357445     0.537331     0.342221    Uiso  ? C
   C901       1.0     0.323879     0.505217     0.326367    Uiso  ? C
   H610       1.0     0.343510     0.479318     0.344656    Uiso  ? H
   C902       1.0     0.339577     0.544849     0.327332    Uiso  ? C
   H611       1.0     0.370153     0.550733     0.349373    Uiso  ? H
   C903       1.0     0.321344     0.529396     0.320166    Uiso  ? C
   H612       1.0     0.310074     0.491979     0.322757    Uiso  ? H
   H613       1.0     0.338425     0.562761     0.320967    Uiso  ? H
   C904       1.0     0.301727     0.537870     0.304451    Uiso  ? C
   H614       1.0     0.309299     0.550000     0.291126    Uiso  ? H
   H615       1.0     0.293017     0.522947     0.295038    Uiso  ? H
   N38        1.0     0.284855     0.550461     0.318528    Uiso  ? N
   C905       1.0     0.266760     0.540817     0.329370    Uiso  ? C
   N39        1.0     0.254287     0.557308     0.342265    Uiso  ? N
   C906       1.0     0.264499     0.577931     0.337318    Uiso  ? C
   H616       1.0     0.257877     0.595097     0.342409    Uiso  ? H
   C907       1.0     0.284489     0.573416     0.323923    Uiso  ? C
   H617       1.0     0.298053     0.586369     0.318037    Uiso  ? H
   N40        1.0     0.428060     0.504106     0.313882    Uiso  ? N
   C908       1.0     0.440458     0.505340     0.334150    Uiso  ? C
   H618       1.0     0.459746     0.507877     0.332885    Uiso  ? H
   H619       1.0     0.390890     0.501164     0.309208    Uiso  ? H
   H620       1.0     0.260474     0.522445     0.326235    Uiso  ? H
   C909       1.0     0.271996     0.460167     0.754420    Uiso  ? C
   H621       1.0     0.257816     0.450855     0.746117    Uiso  ? H
   C910       1.0     0.296843     0.487930     0.763764    Uiso  ? C
   N41        1.0     0.278080     0.482715     0.749694    Uiso  ? N
   C911       1.0     0.267314     0.500603     0.733886    Uiso  ? C
   H622       1.0     0.251995     0.492712     0.726053    Uiso  ? H
   H623       1.0     0.258048     0.513997     0.745025    Uiso  ? H
   C912       1.0     0.283885     0.509193     0.715549    Uiso  ? C
   C913       1.0     0.297104     0.492877     0.703028    Uiso  ? C
   C914       1.0     0.285228     0.533192     0.708978    Uiso  ? C
   C915       1.0     0.311657     0.500287     0.684515    Uiso  ? C
   H624       1.0     0.297350     0.474612     0.707287    Uiso  ? H
   C916       1.0     0.302345     0.541005     0.693915    Uiso  ? C
   H625       1.0     0.275517     0.546836     0.716762    Uiso  ? H
   C917       1.0     0.314772     0.524559     0.680384    Uiso  ? C
   H626       1.0     0.320435     0.486254     0.675081    Uiso  ? H
   H627       1.0     0.303268     0.558969     0.690409    Uiso  ? H
   C918       1.0     0.330242     0.534834     0.660192    Uiso  ? C
   H628       1.0     0.343135     0.547319     0.668231    Uiso  ? H
   H629       1.0     0.339651     0.520616     0.652200    Uiso  ? H
   N42        1.0     0.315316     0.546588     0.642452    Uiso  ? N
   C919       1.0     0.296711     0.537053     0.630892    Uiso  ? C
   N43        1.0     0.285917     0.553974     0.618895    Uiso  ? N
   C920       1.0     0.298039     0.573865     0.620523    Uiso  ? C
   H630       1.0     0.292926     0.590642     0.612613    Uiso  ? H
   C921       1.0     0.317588     0.569066     0.633804    Uiso  ? C
   H631       1.0     0.332821     0.580031     0.637436    Uiso  ? H
   N44        1.0     0.302396     0.469156     0.777271    Uiso  ? N
   C922       1.0     0.288220     0.451443     0.770681    Uiso  ? C
   H632       1.0     0.289556     0.432571     0.777738    Uiso  ? H
   H633       1.0     0.304203     0.504643     0.764735    Uiso  ? H
   H634       1.0     0.290494     0.518943     0.632747    Uiso  ? H
   C923       1.0     0.563036     0.481753     0.645130    Uiso  ? C
   H635       1.0     0.558879     0.484542     0.627590    Uiso  ? H
   C924       1.0     0.576564     0.469633     0.678279    Uiso  ? C
   N45        1.0     0.580695     0.469202     0.655208    Uiso  ? N
   C925       1.0     0.599371     0.456423     0.643065    Uiso  ? C
   H636       1.0     0.593695     0.438127     0.643843    Uiso  ? H
   H637       1.0     0.599268     0.460152     0.624802    Uiso  ? H
   C926       1.0     0.623448     0.462033     0.654450    Uiso  ? C
   C927       1.0     0.632284     0.448409     0.672625    Uiso  ? C
   C928       1.0     0.636619     0.480382     0.646184    Uiso  ? C
   C929       1.0     0.653498     0.452802     0.684027    Uiso  ? C
   H638       1.0     0.622964     0.433442     0.678728    Uiso  ? H
   C930       1.0     0.657070     0.487482     0.657907    Uiso  ? C
   H639       1.0     0.631867     0.489623     0.630010    Uiso  ? H
   C931       1.0     0.664997     0.474706     0.677287    Uiso  ? C
   H640       1.0     0.658518     0.443566     0.699168    Uiso  ? H
   H641       1.0     0.664888     0.505104     0.653352    Uiso  ? H
   C932       1.0     0.687920     0.482812     0.690105    Uiso  ? C
   H642       1.0     0.689691     0.502456     0.687923    Uiso  ? H
   H643       1.0     0.687084     0.480169     0.709059    Uiso  ? H
   N46        1.0     0.709936     0.472288     0.680629    Uiso  ? N
   C933       1.0     0.720449     0.476664     0.659470    Uiso  ? C
   N47        1.0     0.740453     0.463984     0.656107    Uiso  ? N
   C934       1.0     0.743112     0.452830     0.677456    Uiso  ? C
   H644       1.0     0.758389     0.443714     0.683406    Uiso  ? H
   C935       1.0     0.723794     0.456649     0.691244    Uiso  ? C
   H645       1.0     0.720129     0.451214     0.708475    Uiso  ? H
   N48        1.0     0.558039     0.482933     0.684694    Uiso  ? N
   C936       1.0     0.548784     0.490807     0.664410    Uiso  ? C
   H646       1.0     0.532301     0.501231     0.660627    Uiso  ? H
   H647       1.0     0.588343     0.460272     0.691651    Uiso  ? H
   H648       1.0     0.712970     0.487301     0.646957    Uiso  ? H
   C937       1.0     0.821195     0.650167     0.870436    Uiso  ? C
   H649       1.0     0.830051     0.632948     0.870619    Uiso  ? H
   C938       1.0     0.797714     0.680154     0.875091    Uiso  ? C
   N49        1.0     0.798481     0.656220     0.873137    Uiso  ? N
   C939       1.0     0.778127     0.640022     0.876094    Uiso  ? C
   H650       1.0     0.782902     0.622652     0.866448    Uiso  ? H
   H651       1.0     0.777319     0.635483     0.895914    Uiso  ? H
   C940       1.0     0.754388     0.651392     0.866893    Uiso  ? C
   C941       1.0     0.747210     0.648061     0.842887    Uiso  ? C
   C942       1.0     0.738370     0.661128     0.882378    Uiso  ? C
   C943       1.0     0.726720     0.659271     0.834151    Uiso  ? C
   H652       1.0     0.758883     0.639454     0.830862    Uiso  ? H
   C944       1.0     0.718287     0.672462     0.872522    Uiso  ? C
   H653       1.0     0.743194     0.665011     0.100000    Uiso  ? H
   C945       1.0     0.712556     0.672011     0.848749    Uiso  ? C
   H654       1.0     0.724659     0.660614     0.814883    Uiso  ? H
   H655       1.0     0.706628     0.683043     0.883665    Uiso  ? H
   C946       1.0     0.691193     0.684946     0.839817    Uiso  ? C
   H656       1.0     0.682539     0.696300     0.852960    Uiso  ? H
   H657       1.0     0.696540     0.698341     0.827054    Uiso  ? H
   N50        1.0     0.673692     0.668766     0.830109    Uiso  ? N
   C947       1.0     0.653586     0.660889     0.840903    Uiso  ? C
   N51        1.0     0.643095     0.644144     0.827827    Uiso  ? N
   C948       1.0     0.655653     0.643399     0.808186    Uiso  ? C
   H658       1.0     0.650841     0.630492     0.793490    Uiso  ? H
   C949       1.0     0.673337     0.658810     0.808717    Uiso  ? C
   H659       1.0     0.687541     0.661518     0.795557    Uiso  ? H
   N52        1.0     0.819792     0.689110     0.872358    Uiso  ? N
   C950       1.0     0.834187     0.670254     0.869925    Uiso  ? C
   H660       1.0     0.852736     0.670625     0.871147    Uiso  ? H
   H661       1.0     0.782032     0.689492     0.879045    Uiso  ? H
   H662       1.0     0.649178     0.664268     0.859751    Uiso  ? H
   C951       1.0     0.715998     0.373983     0.845115    Uiso  ? C
   H663       1.0     0.734780     0.375962     0.842861    Uiso  ? H
   C952       1.0     0.680761     0.359380     0.849743    Uiso  ? C
   N53        1.0     0.703343     0.353422     0.847784    Uiso  ? N
   C953       1.0     0.712551     0.330337     0.850226    Uiso  ? C
   H664       1.0     0.704776     0.319120     0.837349    Uiso  ? H
   H665       1.0     0.731268     0.330295     0.845673    Uiso  ? H
   C954       1.0     0.708931     0.321722     0.873971    Uiso  ? C
   C955       1.0     0.720990     0.332011     0.892628    Uiso  ? C
   C956       1.0     0.693672     0.302542     0.878033    Uiso  ? C
   C957       1.0     0.720081     0.323004     0.114560    Uiso  ? C
   H666       1.0     0.731997     0.346992     0.887579    Uiso  ? H
   C958       1.0     0.690205     0.295459     0.101235    Uiso  ? C
   H667       1.0     0.682684     0.296044     0.864219    Uiso  ? H
   C959       1.0     0.703852     0.304591     0.119134    Uiso  ? C
   H668       1.0     0.732664     0.330309     0.127817    Uiso  ? H
   H669       1.0     0.676960     0.283087     0.103796    Uiso  ? H
   C960       1.0     0.700688     0.295908     0.144120    Uiso  ? C
   H670       1.0     0.711375     0.306465     0.157143    Uiso  ? H
   H671       1.0     0.682295     0.297246     0.150681    Uiso  ? H
   N54        1.0     0.708331     0.271013     0.145754    Uiso  ? N
   C961       1.0     0.729979     0.262367     0.141927    Uiso  ? C
   N55        1.0     0.729904     0.238181     0.145459    Uiso  ? N
   C962       1.0     0.707894     0.231889     0.151558    Uiso  ? C
   H672       1.0     0.701801     0.214662     0.153220    Uiso  ? H
   C963       1.0     0.694950     0.252326     0.151930    Uiso  ? C
   H673       1.0     0.676941     0.254520     0.154591    Uiso  ? H
   N56        1.0     0.677293     0.382715     0.849493    Uiso  ? N
   C964       1.0     0.699297     0.391860     0.847058    Uiso  ? C
   H674       1.0     0.704061     0.410144     0.847648    Uiso  ? H
   H675       1.0     0.666419     0.346262     0.851081    Uiso  ? H
   H676       1.0     0.744599     0.272657     0.137655    Uiso  ? H
   C965       1.0     0.300086     0.735895     0.831885    Uiso  ? C
   H677       1.0     0.308764     0.724935     0.818684    Uiso  ? H
   C966       1.0     0.294090     0.752309     0.865099    Uiso  ? C
   N57        1.0     0.308629     0.737696     0.854275    Uiso  ? N
   C967       1.0     0.323675     0.720563     0.865198    Uiso  ? C
   H678       1.0     0.330453     0.708295     0.850389    Uiso  ? H
   H679       1.0     0.338531     0.729731     0.873110    Uiso  ? H
   C968       1.0     0.311830     0.705352     0.883302    Uiso  ? C
   C969       1.0     0.315425     0.711477     0.106249    Uiso  ? C
   C970       1.0     0.295262     0.688584     0.876172    Uiso  ? C
   C971       1.0     0.302523     0.699038     0.123465    Uiso  ? C
   H680       1.0     0.330540     0.723085     0.111768    Uiso  ? H
   C972       1.0     0.283010     0.674597     0.892630    Uiso  ? C
   H681       1.0     0.292389     0.684105     0.857258    Uiso  ? H
   C973       1.0     0.285475     0.681950     0.116592    Uiso  ? C
   H682       1.0     0.307440     0.701559     0.141373    Uiso  ? H
   H683       1.0     0.273519     0.660040     0.886204    Uiso  ? H
   C974       1.0     0.271203     0.668724     0.134532    Uiso  ? C
   H684       1.0     0.273445     0.678101     0.151195    Uiso  ? H
   H685       1.0     0.252866     0.667935     0.130767    Uiso  ? H
   N58        1.0     0.280533     0.644915     0.138535    Uiso  ? N
   C975       1.0     0.303347     0.638454     0.140579    Uiso  ? C
   N59        1.0     0.305546     0.615222     0.140803    Uiso  ? N
   C976       1.0     0.282630     0.607194     0.138978    Uiso  ? C
   H686       1.0     0.276733     0.589037     0.137051    Uiso  ? H
   C977       1.0     0.267223     0.626173     0.139104    Uiso  ? C
   H687       1.0     0.247560     0.626701     0.137789    Uiso  ? H
   N60        1.0     0.280172     0.763769     0.850053    Uiso  ? N
   C978       1.0     0.283012     0.753038     0.829250    Uiso  ? C
   H688       1.0     0.273385     0.758700     0.813735    Uiso  ? H
   H689       1.0     0.293438     0.755013     0.884392    Uiso  ? H
   H690       1.0     0.317138     0.651459     0.141271    Uiso  ? H
   C979       1.0     0.312257     0.327023     0.193343    Uiso  ? C
   H691       1.0     0.301201     0.311595     0.194855    Uiso  ? H
   C980       1.0     0.320397     0.363903     0.192301    Uiso  ? C
   N61        1.0     0.306623     0.348160     0.202894    Uiso  ? N
   C981       1.0     0.287618     0.352820     0.219057    Uiso  ? C
   H692       1.0     0.285501     0.339527     0.232098    Uiso  ? H
   H693       1.0     0.291281     0.368629     0.230032    Uiso  ? H
   C982       1.0     0.264627     0.357281     0.205814    Uiso  ? C
   C983       1.0     0.262472     0.373601     0.186458    Uiso  ? C
   C984       1.0     0.244877     0.342994     0.210160    Uiso  ? C
   C985       1.0     0.240713     0.373053     0.173665    Uiso  ? C
   H694       1.0     0.277218     0.384423     0.181329    Uiso  ? H
   C986       1.0     0.223361     0.345195     0.198551    Uiso  ? C
   H695       1.0     0.245299     0.328810     0.222863    Uiso  ? H
   C987       1.0     0.220303     0.360681     0.180378    Uiso  ? C
   H696       1.0     0.239926     0.383175     0.156230    Uiso  ? H
   H697       1.0     0.207860     0.335034     0.205090    Uiso  ? H
   C988       1.0     0.197707     0.363135     0.167707    Uiso  ? C
   H698       1.0     0.182996     0.360547     0.180756    Uiso  ? H
   H699       1.0     0.193138     0.382059     0.160617    Uiso  ? H
   N62        1.0     0.195946     0.345491     0.148853    Uiso  ? N
   C989       1.0     0.183872     0.324795     0.148311    Uiso  ? C
   N63        1.0     0.188406     0.312460     0.128576    Uiso  ? N
   C990       1.0     0.201493     0.326619     0.114885    Uiso  ? C
   H700       1.0     0.206598     0.322101     0.897296    Uiso  ? H
   C991       1.0     0.206914     0.347244     0.127653    Uiso  ? C
   H701       1.0     0.218805     0.359887     0.123191    Uiso  ? H
   N64        1.0     0.335221     0.354049     0.176826    Uiso  ? N
   C992       1.0     0.328601     0.331455     0.175610    Uiso  ? C
   H702       1.0     0.336707     0.318338     0.164408    Uiso  ? H
   H703       1.0     0.320117     0.382111     0.197622    Uiso  ? H
   H704       1.0     0.174069     0.318365     0.162829    Uiso  ? H
   C993       1.0     0.697642     0.778315     0.634844    Uiso  ? C
   H705       1.0     0.705917     0.762547     0.641638    Uiso  ? H
   C994       1.0     0.690587     0.815186     0.632110    Uiso  ? C
   N65        1.0     0.703061     0.799786     0.643785    Uiso  ? N
   C995       1.0     0.718490     0.803724     0.665410    Uiso  ? C
   H706       1.0     0.718984     0.786984     0.675722    Uiso  ? H
   H707       1.0     0.736085     0.806705     0.659301    Uiso  ? H
   C996       1.0     0.710215     0.823461     0.682221    Uiso  ? C
   C997       1.0     0.687927     0.818760     0.693006    Uiso  ? C
   C998       1.0     0.720389     0.845016     0.682592    Uiso  ? C
   C999       1.0     0.677508     0.837120     0.705991    Uiso  ? C
   H708       1.0     0.677377     0.803726     0.686833    Uiso  ? H
   C1000      1.0     0.710447     0.863360     0.696550    Uiso  ? C
   H709       1.0     0.735599     0.848190     0.674435    Uiso  ? H
   C1001      1.0     0.688029     0.859374     0.706802    Uiso  ? C
   H710       1.0     0.659947     0.835947     0.713670    Uiso  ? H
   H711       1.0     0.719727     0.880290     0.697954    Uiso  ? H
   C1002      1.0     0.678615     0.878795     0.722396    Uiso  ? C
   H712       1.0     0.684138     0.896498     0.717063    Uiso  ? H
   H713       1.0     0.658641     0.879362     0.723231    Uiso  ? H
   N66        1.0     0.689142     0.875982     0.745872    Uiso  ? N
   C1003      1.0     0.712211     0.879255     0.751307    Uiso  ? C
   N67        1.0     0.716273     0.874260     0.774012    Uiso  ? N
   C1004      1.0     0.695848     0.868455     0.783636    Uiso  ? C
   H714       1.0     0.691624     0.865892     0.802071    Uiso  ? H
   C1005      1.0     0.678710     0.869733     0.765632    Uiso  ? C
   H715       1.0     0.659407     0.867300     0.768378    Uiso  ? H
   N68        1.0     0.678203     0.804772     0.615481    Uiso  ? N
   C1006      1.0     0.682163     0.781563     0.616277    Uiso  ? C
   H716       1.0     0.674291     0.767447     0.605359    Uiso  ? H
   H717       1.0     0.685841     0.833547     0.636129    Uiso  ? H
   H718       1.0     0.726185     0.882512     0.738150    Uiso  ? H
   C1007      1.0     0.302778     0.181744     0.742728    Uiso  ? C
   H719       1.0     0.320120     0.187424     0.742608    Uiso  ? H
   C1008      1.0     0.268205     0.168916     0.732071    Uiso  ? C
   N69        1.0     0.290056     0.172792     0.724694    Uiso  ? N
   C1009      1.0     0.300000     0.167674     0.701061    Uiso  ? C
   H720       1.0     0.290445     0.176392     0.686529    Uiso  ? H
   H721       1.0     0.318025     0.174480     0.700978    Uiso  ? H
   C1010      1.0     0.299569     0.141431     0.696001    Uiso  ? C
   C1011      1.0     0.283448     0.132223     0.678837    Uiso  ? C
   C1012      1.0     0.311706     0.125034     0.710199    Uiso  ? C
   C1013      1.0     0.279829     0.107878     0.676171    Uiso  ? C
   H722       1.0     0.276790     0.143869     0.666500    Uiso  ? H
   C1014      1.0     0.309086     0.896843     0.705899    Uiso  ? C
   H723       1.0     0.324918     0.130189     0.723817    Uiso  ? H
   C1015      1.0     0.292901     0.888206     0.688911    Uiso  ? C
   H724       1.0     0.266090     0.897282     0.663280    Uiso  ? H
   H725       1.0     0.318252     0.885251     0.718334    Uiso  ? H
   C1016      1.0     0.290882     0.862339     0.685189    Uiso  ? C
   H726       1.0     0.298694     0.853722     0.701091    Uiso  ? H
   H727       1.0     0.272247     0.857821     0.683800    Uiso  ? H
   N70        1.0     0.304444     0.853884     0.664965    Uiso  ? N
   C1017      1.0     0.327589     0.857809     0.658979    Uiso  ? C
   N71        1.0     0.332878     0.846625     0.639681    Uiso  ? N
   C1018      1.0     0.313300     0.834591     0.632922    Uiso  ? C
   H728       1.0     0.312865     0.823331     0.616356    Uiso  ? H
   C1019      1.0     0.295260     0.839155     0.648739    Uiso  ? C
   H729       1.0     0.278163     0.832083     0.646649    Uiso  ? H
   N72        1.0     0.266948     0.174215     0.754901    Uiso  ? N
   C1020      1.0     0.288438     0.181810     0.761582    Uiso  ? C
   H730       1.0     0.291419     0.187019     0.779665    Uiso  ? H
   H731       1.0     0.254437     0.159236     0.722352    Uiso  ? H
   H732       1.0     0.340147     0.869142     0.669400    Uiso  ? H
   C1021      1.0     0.326807     0.140628     0.240426    Uiso  ? C
   H733       1.0     0.343441     0.135094     0.248495    Uiso  ? H
   C1022      1.0     0.297326     0.162429     0.228965    Uiso  ? C
   N73        1.0     0.317886     0.162070     0.241848    Uiso  ? N
   C1023      1.0     0.326332     0.182606     0.254511    Uiso  ? C
   H734       1.0     0.345602     0.184219     0.256155    Uiso  ? H
   H735       1.0     0.322067     0.198992     0.246238    Uiso  ? H
   C1024      1.0     0.317662     0.180993     0.279943    Uiso  ? C
   C1025      1.0     0.298364     0.194302     0.287448    Uiso  ? C
   C1026      1.0     0.329080     0.166690     0.295679    Uiso  ? C
   C1027      1.0     0.290450     0.191150     0.310706    Uiso  ? C
   H736       1.0     0.289780     0.207633     0.276282    Uiso  ? H
   C1028      1.0     0.321782     0.162135     0.318157    Uiso  ? C
   H737       1.0     0.345211     0.158372     0.290144    Uiso  ? H
   C1029      1.0     0.302218     0.174706     0.326268    Uiso  ? C
   H738       1.0     0.275760     0.200326     0.317238    Uiso  ? H
   H739       1.0     0.332323     0.153115     0.330929    Uiso  ? H
   C1030      1.0     0.291938     0.171534     0.350926    Uiso  ? C
   H740       1.0     0.275096     0.179349     0.352235    Uiso  ? H
   H741       1.0     0.290095     0.151738     0.352478    Uiso  ? H
   N74        1.0     0.307261     0.180831     0.369923    Uiso  ? N
   C1031      1.0     0.325786     0.168882     0.380682    Uiso  ? C
   N75        1.0     0.333321     0.181552     0.399378    Uiso  ? N
   C1032      1.0     0.320351     0.201347     0.399457    Uiso  ? C
   H742       1.0     0.321369     0.215201     0.411559    Uiso  ? H
   C1033      1.0     0.304273     0.200514     0.381731    Uiso  ? C
   H743       1.0     0.291484     0.214672     0.377648    Uiso  ? H
   N76        1.0     0.293690     0.140920     0.219830    Uiso  ? N
   C1034      1.0     0.311506     0.127041     0.227488    Uiso  ? C
   H744       1.0     0.314215     0.109168     0.222695    Uiso  ? H
   H745       1.0     0.285540     0.178091     0.228166    Uiso  ? H
   H746       1.0     0.332895     0.152908     0.375828    Uiso  ? H
   C1035      1.0     0.699852     0.153188     0.334700    Uiso  ? C
   H747       1.0     0.707778     0.163649     0.320404    Uiso  ? H
   C1036      1.0     0.696295     0.127324     0.362574    Uiso  ? C
   N77        1.0     0.710685     0.134840     0.345031    Uiso  ? N
   C1037      1.0     0.731502     0.123533     0.336214    Uiso  ? C
   H748       1.0     0.743203     0.136715     0.328340    Uiso  ? H
   H749       1.0     0.742126     0.115090     0.349211    Uiso  ? H
   C1038      1.0     0.723715     0.106928     0.316175    Uiso  ? C
   C1039      1.0     0.713512     0.880050     0.321465    Uiso  ? C
   C1040      1.0     0.719387     0.116922     0.294230    Uiso  ? C
   C1041      1.0     0.703549     0.866682     0.303033    Uiso  ? C
   H750       1.0     0.716224     0.872448     0.338841    Uiso  ? H
   C1042      1.0     0.707984     0.103887     0.276566    Uiso  ? C
   H751       1.0     0.724822     0.134507     0.288293    Uiso  ? H
   C1043      1.0     0.701697     0.875612     0.279480    Uiso  ? C
   H752       1.0     0.696565     0.848768     0.305338    Uiso  ? H
   H753       1.0     0.704459     0.111676     0.259333    Uiso  ? H
   C1044      1.0     0.692580     0.859712     0.259594    Uiso  ? C
   H754       1.0     0.676918     0.849305     0.265360    Uiso  ? H
   H755       1.0     0.685409     0.870848     0.243811    Uiso  ? H
   N78        1.0     0.710662     0.843710     0.250085    Uiso  ? N
   C1045      1.0     0.729937     0.850384     0.237926    Uiso  ? C
   N79        1.0     0.742268     0.831155     0.231063    Uiso  ? N
   C1046      1.0     0.729868     0.812008     0.239271    Uiso  ? C
   H756       1.0     0.734900     0.793284     0.233804    Uiso  ? H
   C1047      1.0     0.710458     0.820371     0.251671    Uiso  ? C
   H757       1.0     0.696672     0.809721     0.259296    Uiso  ? H
   N80        1.0     0.676207     0.139980     0.363222    Uiso  ? N
   C1048      1.0     0.676828     0.154862     0.344894    Uiso  ? C
   H758       1.0     0.663805     0.167284     0.341892    Uiso  ? H
   H759       1.0     0.701739     0.112309     0.374615    Uiso  ? H
   H760       1.0     0.736784     0.868302     0.235325    Uiso  ? H
   C1049      1.0     0.193963     0.363643     0.694256    Uiso  ? C
   H761       1.0     0.210407     0.356141     0.700221    Uiso  ? H
   C1050      1.0     0.157292     0.368968     0.688450    Uiso  ? C
   N81        1.0     0.172718     0.355788     0.699709    Uiso  ? N
   C1051      1.0     0.167669     0.338659     0.718753    Uiso  ? C
   H762       1.0     0.182664     0.326914     0.718618    Uiso  ? H
   H763       1.0     0.165561     0.346644     0.736020    Uiso  ? H
   C1052      1.0     0.146040     0.324124     0.713950    Uiso  ? C
   C1053      1.0     0.123226     0.331760     0.720195    Uiso  ? C
   C1054      1.0     0.148184     0.304083     0.699735    Uiso  ? C
   C1055      1.0     0.103687     0.319113     0.714561    Uiso  ? C
   H764       1.0     0.121037     0.348683     0.729454    Uiso  ? H
   C1056      1.0     0.127111     0.291968     0.693293    Uiso  ? C
   H765       1.0     0.165744     0.297519     0.693931    Uiso  ? H
   C1057      1.0     0.104837     0.298465     0.702084    Uiso  ? C
   H766       1.0     0.883033     0.326326     0.719378    Uiso  ? H
   H767       1.0     0.127310     0.276709     0.681045    Uiso  ? H
   C1058      1.0     0.877515     0.285651     0.694702    Uiso  ? C
   H768       1.0     0.868230     0.297545     0.683295    Uiso  ? H
   H769       1.0     0.881859     0.269270     0.683980    Uiso  ? H
   N82        1.0     0.863816     0.278714     0.715336    Uiso  ? N
   C1059      1.0     0.871450     0.267073     0.734337    Uiso  ? C
   N83        1.0     0.853245     0.259717     0.747001    Uiso  ? N
   C1060      1.0     0.833879     0.267192     0.735388    Uiso  ? C
   H770       1.0     0.816045     0.265537     0.743138    Uiso  ? H
   C1061      1.0     0.840231     0.280094     0.715621    Uiso  ? C
   H771       1.0     0.829331     0.289093     0.702998    Uiso  ? H
   N84        1.0     0.167766     0.385405     0.674585    Uiso  ? N
   C1062      1.0     0.191229     0.381120     0.677536    Uiso  ? C
   H772       1.0     0.205891     0.388295     0.667699    Uiso  ? H
   H773       1.0     0.138821     0.365324     0.690385    Uiso  ? H
   H774       1.0     0.889155     0.261559     0.738161    Uiso  ? H
   C1063      1.0     0.142819     0.794124     0.658526    Uiso  ? C
   H775       1.0     0.146017     0.797678     0.640454    Uiso  ? H
   C1064      1.0     0.137099     0.778618     0.692105    Uiso  ? C
   N85        1.0     0.140470     0.773560     0.669544    Uiso  ? N
   C1065      1.0     0.143682     0.749888     0.659431    Uiso  ? C
   H776       1.0     0.142688     0.751272     0.639265    Uiso  ? H
   H777       1.0     0.161355     0.744147     0.664854    Uiso  ? H
   C1066      1.0     0.123212     0.735360     0.668803    Uiso  ? C
   C1067      1.0     0.126973     0.718532     0.686983    Uiso  ? C
   C1068      1.0     0.896583     0.736699     0.657979    Uiso  ? C
   C1069      1.0     0.107869     0.706889     0.697570    Uiso  ? C
   H778       1.0     0.144475     0.715963     0.694159    Uiso  ? H
   C1070      1.0     0.877799     0.724775     0.667975    Uiso  ? C
   H779       1.0     0.891922     0.749997     0.646089    Uiso  ? H
   C1071      1.0     0.880889     0.710658     0.688409    Uiso  ? C
   H780       1.0     0.111654     0.696828     0.712790    Uiso  ? H
   H781       1.0     0.860288     0.727146     0.661326    Uiso  ? H
   C1072      1.0     0.860228     0.696858     0.697557    Uiso  ? C
   H782       1.0     0.858946     0.699661     0.717741    Uiso  ? H
   H783       1.0     0.843305     0.703950     0.692585    Uiso  ? H
   N86        1.0     0.862383     0.672307     0.692511    Uiso  ? N
   C1073      1.0     0.870781     0.661422     0.673634    Uiso  ? C
   N87        1.0     0.868630     0.638006     0.674953    Uiso  ? N
   C1074      1.0     0.857997     0.633739     0.695566    Uiso  ? C
   H784       1.0     0.852486     0.616257     0.701244    Uiso  ? H
   C1075      1.0     0.852448     0.655399     0.705730    Uiso  ? C
   H785       1.0     0.840858     0.659563     0.718326    Uiso  ? H
   N88        1.0     0.135314     0.801742     0.695520    Uiso  ? N
   C1076      1.0     0.139737     0.812503     0.674794    Uiso  ? C
   H786       1.0     0.141961     0.830889     0.672032    Uiso  ? H
   H787       1.0     0.135200     0.765357     0.705681    Uiso  ? H
   H788       1.0     0.877728     0.669294     0.656269    Uiso  ? H
   C1077      1.0     0.826243     0.663403     0.304572    Uiso  ? C
   H789       1.0     0.817195     0.679974     0.298618    Uiso  ? H
   C1078      1.0     0.849094     0.633790     0.308246    Uiso  ? C
   N89        1.0     0.842491     0.650711     0.292899    Uiso  ? N
   C1079      1.0     0.851182     0.654377     0.268874    Uiso  ? C
   H790       1.0     0.849136     0.637078     0.258784    Uiso  ? H
   H791       1.0     0.841579     0.668400     0.259916    Uiso  ? H
   C1080      1.0     0.876072     0.663204     0.269252    Uiso  ? C
   C1081      1.0     0.881220     0.686180     0.275392    Uiso  ? C
   C1082      1.0     0.894069     0.646952     0.263108    Uiso  ? C
   C1083      1.0     0.108795     0.692960     0.277422    Uiso  ? C
   H792       1.0     0.866744     0.698566     0.278379    Uiso  ? H
   C1084      1.0     0.122424     0.655137     0.265782    Uiso  ? C
   H793       1.0     0.891354     0.628261     0.260326    Uiso  ? H
   C1085      1.0     0.127554     0.678266     0.271076    Uiso  ? C
   H794       1.0     0.113584     0.711327     0.282818    Uiso  ? H
   H795       1.0     0.138104     0.642660     0.262266    Uiso  ? H
   C1086      1.0     0.152902     0.685355     0.273951    Uiso  ? C
   H796       1.0     0.157914     0.681201     0.292875    Uiso  ? H
   H797       1.0     0.163795     0.674698     0.261953    Uiso  ? H
   N90        1.0     0.155791     0.710688     0.268263    Uiso  ? N
   C1087      1.0     0.149960     0.721546     0.248158    Uiso  ? C
   N91        1.0     0.155793     0.744025     0.248634    Uiso  ? N
   C1088      1.0     0.165723     0.748154     0.270492    Uiso  ? C
   H798       1.0     0.175405     0.764639     0.275939    Uiso  ? H
   C1089      1.0     0.165810     0.726692     0.281682    Uiso  ? C
   H799       1.0     0.174619     0.724195     0.298264    Uiso  ? H
   N92        1.0     0.836291     0.633888     0.328281    Uiso  ? N
   C1090      1.0     0.823644     0.653924     0.327224    Uiso  ? C
   H800       1.0     0.813359     0.662687     0.340591    Uiso  ? H
   H801       1.0     0.862386     0.621266     0.303035    Uiso  ? H
   H802       1.0     0.143881     0.712764     0.231883    Uiso  ? H
   C1091      1.0     0.897292     0.363322     0.284439    Uiso  ? C
   H803       1.0     0.887831     0.361250     0.267906    Uiso  ? H
   C1092      1.0     0.121775     0.353486     0.314667    Uiso  ? C
   N93        1.0     0.113184     0.345330     0.294301    Uiso  ? N
   C1093      1.0     0.118087     0.321853     0.284682    Uiso  ? C
   H804       1.0     0.109813     0.320750     0.267448    Uiso  ? H
   H805       1.0     0.137103     0.320106     0.281774    Uiso  ? H
   C1094      1.0     0.109495     0.302320     0.299771    Uiso  ? C
   C1095      1.0     0.881802     0.294616     0.298339    Uiso  ? C
   C1096      1.0     0.125835     0.289984     0.314391    Uiso  ? C
   C1097      1.0     0.873955     0.276075     0.312206    Uiso  ? C
   H806       1.0     0.870094     0.304324     0.287508    Uiso  ? H
   C1098      1.0     0.116634     0.272580     0.328847    Uiso  ? C
   H807       1.0     0.144402     0.294878     0.314127    Uiso  ? H
   C1099      1.0     0.889731     0.264291     0.328059    Uiso  ? C
   H808       1.0     0.855365     0.270721     0.310497    Uiso  ? H
   H809       1.0     0.131066     0.264337     0.339688    Uiso  ? H
   C1100      1.0     0.882521     0.242396     0.341556    Uiso  ? C
   H810       1.0     0.891949     0.240533     0.358542    Uiso  ? H
   H811       1.0     0.863517     0.241806     0.344755    Uiso  ? H
   N94        1.0     0.887540     0.220239     0.328381    Uiso  ? N
   C1101      1.0     0.883003     0.215879     0.305713    Uiso  ? C
   N95        1.0     0.891709     0.195254     0.298795    Uiso  ? N
   C1102      1.0     0.103978     0.185048     0.318921    Uiso  ? C
   H812       1.0     0.110334     0.167116     0.319213    Uiso  ? H
   C1103      1.0     0.897217     0.200737     0.337339    Uiso  ? C
   H813       1.0     0.108138     0.197861     0.354908    Uiso  ? H
   N96        1.0     0.116216     0.377065     0.317220    Uiso  ? N
   C1104      1.0     0.104381     0.382465     0.297822    Uiso  ? C
   H814       1.0     0.893187     0.399728     0.294170    Uiso  ? H
   H815       1.0     0.131122     0.343249     0.326474    Uiso  ? H
   H816       1.0     0.876735     0.229449     0.293204    Uiso  ? H
