_chemical_name_common                  ' Atoms. Timestep: 0'
_cell_length_a                         45.790310
_cell_length_b                         45.790310
_cell_length_c                         45.790310
_cell_angle_alpha                      90.000000
_cell_angle_beta                       90.000000
_cell_angle_gamma                      90.000000
_cell_volume                           1.000000
_space_group_name_H-M_alt              'P 1'
_space_group_IT_number                 1

loop_
_space_group_symop_operation_xyz
   'x, y, z'

loop_
   _atom_site_label
   _atom_site_occupancy
   _atom_site_fract_x
   _atom_site_fract_y
   _atom_site_fract_z
   _atom_site_adp_type
   _atom_site_U_iso_or_equiv
   _atom_site_type_symbol
   C1         1.0     0.887248     0.171403     0.295584    Uiso  ? C
   C2         1.0     0.855456     0.180046     0.299176    Uiso  ? C
   C3         1.0     0.846159     0.198887     0.320570    Uiso  ? C
   H1         1.0     0.862638     0.206462     0.335402    Uiso  ? H
   C4         1.0     0.817640     0.209258     0.320880    Uiso  ? C
   H2         1.0     0.812800     0.224451     0.339257    Uiso  ? H
   C5         1.0     0.795829     0.198860     0.300814    Uiso  ? C
   H3         1.0     0.774283     0.210223     0.301328    Uiso  ? H
   C6         1.0     0.803466     0.177183     0.281042    Uiso  ? C
   C7         1.0     0.833510     0.166371     0.280644    Uiso  ? C
   H4         1.0     0.839872     0.150374     0.264390    Uiso  ? H
   C8         1.0     0.781117     0.164108     0.260210    Uiso  ? C
   C9         1.0     0.122531     0.109531     0.301159    Uiso  ? C
   C10        1.0     0.109219     0.874831     0.308711    Uiso  ? C
   C11        1.0     0.109583     0.866764     0.338303    Uiso  ? C
   H5         1.0     0.117602     0.881241     0.355394    Uiso  ? H
   C12        1.0     0.892191     0.839935     0.347855    Uiso  ? C
   H6         1.0     0.893564     0.833237     0.370401    Uiso  ? H
   C13        1.0     0.880786     0.820422     0.328421    Uiso  ? C
   H7         1.0     0.872180     0.800667     0.335706    Uiso  ? H
   C14        1.0     0.883132     0.826460     0.298296    Uiso  ? C
   C15        1.0     0.894802     0.854137     0.288650    Uiso  ? C
   H8         1.0     0.893536     0.860483     0.265990    Uiso  ? H
   C16        1.0     0.870286     0.806731     0.276637    Uiso  ? C
   C17        1.0     0.203942     0.154161     0.285272    Uiso  ? C
   C18        1.0     0.234695     0.153574     0.280458    Uiso  ? C
   C19        1.0     0.254715     0.154622     0.303444    Uiso  ? C
   H9         1.0     0.244278     0.157053     0.325405    Uiso  ? H
   C20        1.0     0.284538     0.156533     0.298084    Uiso  ? C
   H10        1.0     0.299971     0.157099     0.316512    Uiso  ? H
   C21        1.0     0.294752     0.156888     0.269882    Uiso  ? C
   H11        1.0     0.316984     0.161783     0.266429    Uiso  ? H
   C22        1.0     0.274988     0.154807     0.246502    Uiso  ? C
   C23        1.0     0.244577     0.152373     0.251904    Uiso  ? C
   H12        1.0     0.228819     0.150857     0.233724    Uiso  ? H
   C24        1.0     0.285372     0.160487     0.216589    Uiso  ? C
   C25        1.0     0.141061     0.215740     0.270884    Uiso  ? C
   C26        1.0     0.139005     0.246576     0.261371    Uiso  ? C
   C27        1.0     0.127164     0.267517     0.280644    Uiso  ? C
   H13        1.0     0.126112     0.262492     0.305582    Uiso  ? H
   C28        1.0     0.121104     0.295071     0.270201    Uiso  ? C
   H14        1.0     0.114166     0.312365     0.286370    Uiso  ? H
   C29        1.0     0.125667     0.301906     0.240594    Uiso  ? C
   H15        1.0     0.123223     0.324682     0.232986    Uiso  ? H
   C30        1.0     0.135843     0.280531     0.220928    Uiso  ? C
   C31        1.0     0.145092     0.253512     0.232516    Uiso  ? C
   H16        1.0     0.156538     0.238083     0.218122    Uiso  ? H
   C32        1.0     0.138396     0.286329     0.189616    Uiso  ? C
   C33        1.0     0.713714     0.115541     0.181154    Uiso  ? C
   C34        1.0     0.693146     0.103799     0.158786    Uiso  ? C
   C35        1.0     0.666793     0.117873     0.156870    Uiso  ? C
   H17        1.0     0.661664     0.135167     0.173187    Uiso  ? H
   C36        1.0     0.645265     0.107558     0.136607    Uiso  ? C
   H18        1.0     0.622330     0.114617     0.137788    Uiso  ? H
   C37        1.0     0.651340     0.881852     0.116009    Uiso  ? C
   H19        1.0     0.636639     0.873846     0.898733    Uiso  ? H
   C38        1.0     0.681032     0.872044     0.114643    Uiso  ? C
   C39        1.0     0.700659     0.878218     0.137410    Uiso  ? C
   H20        1.0     0.723436     0.871003     0.137918    Uiso  ? H
   C40        1.0     0.690654     0.852440     0.889941    Uiso  ? C
   C41        1.0     0.736845     0.875753     0.230345    Uiso  ? C
   C42        1.0     0.735631     0.843156     0.236200    Uiso  ? C
   C43        1.0     0.710294     0.828341     0.247246    Uiso  ? C
   H21        1.0     0.690971     0.840911     0.250419    Uiso  ? H
   C44        1.0     0.711670     0.798465     0.254158    Uiso  ? C
   H22        1.0     0.692325     0.786461     0.263215    Uiso  ? H
   C45        1.0     0.738789     0.783683     0.250828    Uiso  ? C
   H23        1.0     0.739261     0.761228     0.258602    Uiso  ? H
   C46        1.0     0.763572     0.798985     0.240802    Uiso  ? C
   C47        1.0     0.761377     0.826961     0.231228    Uiso  ? C
   H24        1.0     0.778977     0.837900     0.221160    Uiso  ? H
   C48        1.0     0.791909     0.785238     0.238222    Uiso  ? C
   C49        1.0     0.733910     0.179992     0.182047    Uiso  ? C
   C50        1.0     0.721742     0.200802     0.160225    Uiso  ? C
   C51        1.0     0.697374     0.217412     0.166251    Uiso  ? C
   H25        1.0     0.687473     0.213569     0.187469    Uiso  ? H
   C52        1.0     0.686132     0.238351     0.146664    Uiso  ? C
   H26        1.0     0.665653     0.249144     0.150577    Uiso  ? H
   C53        1.0     0.698490     0.240037     0.119759    Uiso  ? C
   H27        1.0     0.690722     0.254925     0.104145    Uiso  ? H
   C54        1.0     0.724867     0.224602     0.112485    Uiso  ? C
   C55        1.0     0.734908     0.204514     0.132180    Uiso  ? C
   H28        1.0     0.751905     0.189904     0.123607    Uiso  ? H
   C56        1.0     0.741252     0.227502     0.885383    Uiso  ? C
   C57        1.0     0.851728     0.720196     0.208559    Uiso  ? C
   C58        1.0     0.858107     0.693801     0.190199    Uiso  ? C
   C59        1.0     0.865445     0.666184     0.203071    Uiso  ? C
   H29        1.0     0.862824     0.661585     0.228653    Uiso  ? H
   C60        1.0     0.872606     0.642498     0.184456    Uiso  ? C
   H30        1.0     0.875919     0.621620     0.194534    Uiso  ? H
   C61        1.0     0.873756     0.647261     0.153805    Uiso  ? C
   H31        1.0     0.881795     0.630535     0.138650    Uiso  ? H
   C62        1.0     0.865462     0.674254     0.141317    Uiso  ? C
   C63        1.0     0.858107     0.697173     0.160293    Uiso  ? C
   H32        1.0     0.855930     0.720169     0.152865    Uiso  ? H
   C64        1.0     0.865065     0.680499     0.110544    Uiso  ? C
   C65        1.0     0.105816     0.751034     0.246895    Uiso  ? C
   C66        1.0     0.134837     0.739261     0.242741    Uiso  ? C
   C67        1.0     0.144361     0.714103     0.259240    Uiso  ? C
   H33        1.0     0.130027     0.706931     0.276862    Uiso  ? H
   C68        1.0     0.172739     0.703528     0.256270    Uiso  ? C
   H34        1.0     0.179743     0.686357     0.269956    Uiso  ? H
   C69        1.0     0.189557     0.715354     0.235014    Uiso  ? C
   H35        1.0     0.211282     0.706158     0.229465    Uiso  ? H
   C70        1.0     0.180066     0.739877     0.218255    Uiso  ? C
   C71        1.0     0.151903     0.751488     0.221507    Uiso  ? C
   H36        1.0     0.145361     0.771108     0.210350    Uiso  ? H
   C72        1.0     0.199548     0.752925     0.197273    Uiso  ? C
   C73        1.0     0.731353     0.197969     0.822348    Uiso  ? C
   C74        1.0     0.709281     0.175159     0.817758    Uiso  ? C
   C75        1.0     0.682469     0.182787     0.803801    Uiso  ? C
   H37        1.0     0.678726     0.204464     0.796260    Uiso  ? H
   C76        1.0     0.660069     0.161029     0.800894    Uiso  ? C
   H38        1.0     0.639421     0.167817     0.790881    Uiso  ? H
   C77        1.0     0.665833     0.132125     0.810571    Uiso  ? C
   H39        1.0     0.649733     0.115190     0.807782    Uiso  ? H
   C78        1.0     0.692836     0.124644     0.824010    Uiso  ? C
   C79        1.0     0.714260     0.147244     0.827991    Uiso  ? C
   H40        1.0     0.734703     0.142204     0.837469    Uiso  ? H
   C80        1.0     0.699156     0.888471     0.827373    Uiso  ? C
   C81        1.0     0.792892     0.276148     0.875438    Uiso  ? C
   C82        1.0     0.805786     0.298683     0.893724    Uiso  ? C
   C83        1.0     0.791536     0.324985     0.900000    Uiso  ? C
   H41        1.0     0.769702     0.329720     0.892215    Uiso  ? H
   C84        1.0     0.803746     0.346429     0.118653    Uiso  ? C
   H42        1.0     0.790824     0.365830     0.123748    Uiso  ? H
   C85        1.0     0.833265     0.342758     0.125869    Uiso  ? C
   H43        1.0     0.845331     0.360458     0.137507    Uiso  ? H
   C86        1.0     0.848452     0.317302     0.119575    Uiso  ? C
   C87        1.0     0.832776     0.294514     0.106832    Uiso  ? C
   H44        1.0     0.843702     0.274060     0.104486    Uiso  ? H
   C88        1.0     0.878899     0.312398     0.128490    Uiso  ? C
   C89        1.0     0.194239     0.287916     0.141214    Uiso  ? C
   C90        1.0     0.225932     0.281404     0.144922    Uiso  ? C
   C91        1.0     0.245447     0.304073     0.148251    Uiso  ? C
   H45        1.0     0.237480     0.326267     0.148464    Uiso  ? H
   C92        1.0     0.275510     0.298986     0.147852    Uiso  ? C
   H46        1.0     0.288427     0.318237     0.150415    Uiso  ? H
   C93        1.0     0.285021     0.270854     0.151409    Uiso  ? C
   H47        1.0     0.307718     0.267534     0.157780    Uiso  ? H
   C94        1.0     0.264761     0.246735     0.152205    Uiso  ? C
   C95        1.0     0.234682     0.252767     0.147034    Uiso  ? C
   H48        1.0     0.218773     0.234735     0.145036    Uiso  ? H
   C96        1.0     0.272859     0.215733     0.155065    Uiso  ? C
   O1         1.0     0.893645     0.153667     0.275174    Uiso  ? O
   O2         1.0     0.112575     0.185661     0.309168    Uiso  ? O
   O3         1.0     0.116932     0.120026     0.276143    Uiso  ? O
   O4         1.0     0.138639     0.124094     0.318938    Uiso  ? O
   O5         1.0     0.186013     0.141892     0.267965    Uiso  ? O
   O6         1.0     0.194593     0.170300     0.306263    Uiso  ? O
   O7         1.0     0.141578     0.195628     0.252108    Uiso  ? O
   O8         1.0     0.139274     0.207932     0.297733    Uiso  ? O
   O9         1.0     0.739770     0.107598     0.181730    Uiso  ? O
   O10        1.0     0.704625     0.133386     0.200404    Uiso  ? O
   O11        1.0     0.754836     0.886001     0.211287    Uiso  ? O
   O12        1.0     0.719392     0.893077     0.243925    Uiso  ? O
   O13        1.0     0.790075     0.150598     0.237751    Uiso  ? O
   O14        1.0     0.754242     0.165346     0.264084    Uiso  ? O
   O15        1.0     0.759787     0.169784     0.179337    Uiso  ? O
   O16        1.0     0.717123     0.169948     0.202735    Uiso  ? O
   O17        1.0     0.851357     0.745570     0.198238    Uiso  ? O
   O18        1.0     0.850767     0.717472     0.236368    Uiso  ? O
   O19        1.0     0.896113     0.777160     0.238188    Uiso  ? O
   O20        1.0     0.878465     0.735640     0.255833    Uiso  ? O
   O21        1.0     0.881413     0.805801     0.250400    Uiso  ? O
   O22        1.0     0.850090     0.788164     0.284765    Uiso  ? O
   O23        1.0     0.813873     0.801427     0.233368    Uiso  ? O
   O24        1.0     0.795508     0.758140     0.243110    Uiso  ? O
   O25        1.0     0.751621     0.193907     0.841171    Uiso  ? O
   O26        1.0     0.728560     0.222534     0.810499    Uiso  ? O
   O27        1.0     0.757599     0.207943     0.873995    Uiso  ? O
   O28        1.0     0.740025     0.252405     0.873390    Uiso  ? O
   O29        1.0     0.807201     0.253407     0.868692    Uiso  ? O
   O30        1.0     0.766413     0.277571     0.867998    Uiso  ? O
   O31        1.0     0.806240     0.225632     0.803571    Uiso  ? O
   O32        1.0     0.785723     0.268058     0.797911    Uiso  ? O
   O33        1.0     0.886624     0.288423     0.139052    Uiso  ? O
   O34        1.0     0.104290     0.330899     0.120565    Uiso  ? O
   O35        1.0     0.149628     0.267644     0.173425    Uiso  ? O
   O36        1.0     0.129565     0.310535     0.178926    Uiso  ? O
   O37        1.0     0.175685     0.269897     0.149154    Uiso  ? O
   O38        1.0     0.186939     0.313094     0.132167    Uiso  ? O
   O39        1.0     0.145772     0.287194     0.891535    Uiso  ? O
   O40        1.0     0.130071     0.332858     0.897334    Uiso  ? O
   O41        1.0     0.743225     0.850913     0.804539    Uiso  ? O
   O42        1.0     0.703233     0.832521     0.787701    Uiso  ? O
   O43        1.0     0.750204     0.800844     0.838808    Uiso  ? O
   O44        1.0     0.704463     0.787946     0.846065    Uiso  ? O
   O45        1.0     0.717365     0.845148     0.888766    Uiso  ? O
   O46        1.0     0.673806     0.852025     0.866928    Uiso  ? O
   O47        1.0     0.726413     0.881199     0.827179    Uiso  ? O
   O48        1.0     0.679281     0.869011     0.834222    Uiso  ? O
   O49        1.0     0.144119     0.138938     0.211909    Uiso  ? O
   O50        1.0     0.811774     0.120745     0.179548    Uiso  ? O
   O51        1.0     0.855375     0.813953     0.181337    Uiso  ? O
   O52        1.0     0.824453     0.182962     0.853658    Uiso  ? O
   O53        1.0     0.124311     0.229710     0.117866    Uiso  ? O
   O54        1.0     0.781656     0.854023     0.869712    Uiso  ? O
   Zn1        1.0     0.142185     0.150915     0.256183    Uiso  ? Zn
   Zn2        1.0     0.152701     0.166937     0.318879    Uiso  ? Zn
   Zn3        1.0     0.774921     0.132453     0.199332    Uiso  ? Zn
   Zn4        1.0     0.721779     0.145516     0.242363    Uiso  ? Zn
   Zn5        1.0     0.854586     0.787112     0.217958    Uiso  ? Zn
   Zn6        1.0     0.834442     0.748269     0.266857    Uiso  ? Zn
   Zn7        1.0     0.793303     0.216659     0.845641    Uiso  ? Zn
   Zn8        1.0     0.748905     0.262249     0.827308    Uiso  ? Zn
   Zn9        1.0     0.132720     0.270030     0.131157    Uiso  ? Zn
   Zn10       1.0     0.143743     0.331249     0.140590    Uiso  ? Zn
   Zn11       1.0     0.742982     0.843868     0.850356    Uiso  ? Zn
   Zn12       1.0     0.683605     0.824253     0.829400    Uiso  ? Zn
   C97        1.0     0.132126     0.828339     0.700329    Uiso  ? C
   C98        1.0     0.163223     0.821217     0.697531    Uiso  ? C
   C99        1.0     0.172569     0.801877     0.676055    Uiso  ? C
   H49        1.0     0.157044     0.791973     0.660528    Uiso  ? H
   C100       1.0     0.201147     0.792630     0.674396    Uiso  ? C
   H50        1.0     0.207170     0.778811     0.655839    Uiso  ? H
   C101       1.0     0.220795     0.801462     0.696595    Uiso  ? C
   H51        1.0     0.244042     0.795976     0.693961    Uiso  ? H
   C102       1.0     0.212730     0.825336     0.715782    Uiso  ? C
   C103       1.0     0.183115     0.833833     0.716549    Uiso  ? C
   H52        1.0     0.176319     0.850426     0.731766    Uiso  ? H
   C104       1.0     0.233697     0.838836     0.737806    Uiso  ? C
   C105       1.0     0.894366     0.890197     0.687490    Uiso  ? C
   C106       1.0     0.110452     0.125395     0.676634    Uiso  ? C
   C107       1.0     0.105944     0.134615     0.647320    Uiso  ? C
   H53        1.0     0.890098     0.120834     0.631756    Uiso  ? H
   C108       1.0     0.118724     0.161483     0.636833    Uiso  ? C
   H54        1.0     0.115633     0.167357     0.614298    Uiso  ? H
   C109       1.0     0.132865     0.179273     0.657005    Uiso  ? C
   H55        1.0     0.146099     0.198509     0.650050    Uiso  ? H
   C110       1.0     0.133761     0.171787     0.686339    Uiso  ? C
   C111       1.0     0.122434     0.145459     0.696597    Uiso  ? C
   H56        1.0     0.123773     0.141585     0.718691    Uiso  ? H
   C112       1.0     0.143655     0.193399     0.707820    Uiso  ? C
   C113       1.0     0.814982     0.843361     0.717483    Uiso  ? C
   C114       1.0     0.783543     0.845220     0.722205    Uiso  ? C
   C115       1.0     0.764792     0.842678     0.698536    Uiso  ? C
   H57        1.0     0.773353     0.840774     0.676005    Uiso  ? H
   C116       1.0     0.733620     0.839649     0.702275    Uiso  ? C
   H58        1.0     0.722849     0.838269     0.682924    Uiso  ? H
   C117       1.0     0.721235     0.841841     0.729586    Uiso  ? C
   H59        1.0     0.698536     0.840219     0.732537    Uiso  ? H
   C118       1.0     0.740281     0.846596     0.753620    Uiso  ? C
   C119       1.0     0.771313     0.848011     0.749466    Uiso  ? C
   H60        1.0     0.786600     0.846753     0.767835    Uiso  ? H
   C120       1.0     0.727645     0.842726     0.783709    Uiso  ? C
   C121       1.0     0.879808     0.784281     0.724518    Uiso  ? C
   C122       1.0     0.880583     0.754384     0.733764    Uiso  ? C
   C123       1.0     0.888367     0.732071     0.713072    Uiso  ? C
   H61        1.0     0.892675     0.736695     0.689997    Uiso  ? H
   C124       1.0     0.894101     0.703631     0.724843    Uiso  ? C
   H62        1.0     0.105596     0.687527     0.708601    Uiso  ? H
   C125       1.0     0.889400     0.697313     0.754592    Uiso  ? C
   H63        1.0     0.890965     0.675110     0.762052    Uiso  ? H
   C126       1.0     0.877347     0.718267     0.772711    Uiso  ? C
   C127       1.0     0.876152     0.747374     0.763113    Uiso  ? C
   H64        1.0     0.866342     0.764364     0.779437    Uiso  ? H
   C128       1.0     0.871396     0.710187     0.802842    Uiso  ? C
   C129       1.0     0.306252     0.884449     0.815399    Uiso  ? C
   C130       1.0     0.325586     0.892300     0.840756    Uiso  ? C
   C131       1.0     0.353729     0.880808     0.842774    Uiso  ? C
   H65        1.0     0.362865     0.866296     0.827096    Uiso  ? H
   C132       1.0     0.372026     0.888969     0.866403    Uiso  ? C
   H66        1.0     0.393862     0.880411     0.867563    Uiso  ? H
   C133       1.0     0.362692     0.111100     0.888760    Uiso  ? C
   H67        1.0     0.376134     0.116417     0.106648    Uiso  ? H
   C134       1.0     0.333413     0.122195     0.888109    Uiso  ? C
   C135       1.0     0.315601     0.115036     0.863829    Uiso  ? C
   H68        1.0     0.295684     0.126608     0.858937    Uiso  ? H
   C136       1.0     0.318945     0.138348     0.111932    Uiso  ? C
   C137       1.0     0.278681     0.124362     0.759697    Uiso  ? C
   C138       1.0     0.275676     0.154507     0.751951    Uiso  ? C
   C139       1.0     0.298731     0.169031     0.739486    Uiso  ? C
   H69        1.0     0.319930     0.158456     0.735596    Uiso  ? H
   C140       1.0     0.295331     0.198242     0.732897    Uiso  ? C
   H70        1.0     0.315990     0.207292     0.724166    Uiso  ? H
   C141       1.0     0.270022     0.213746     0.738112    Uiso  ? C
   H71        1.0     0.269332     0.235204     0.730921    Uiso  ? H
   C142       1.0     0.245495     0.198007     0.748758    Uiso  ? C
   C143       1.0     0.248956     0.169431     0.756288    Uiso  ? C
   H72        1.0     0.229365     0.157914     0.766847    Uiso  ? H
   C144       1.0     0.215881     0.211354     0.748951    Uiso  ? C
   C145       1.0     0.277877     0.821082     0.811261    Uiso  ? C
   C146       1.0     0.286641     0.799186     0.833910    Uiso  ? C
   C147       1.0     0.312107     0.781787     0.828472    Uiso  ? C
   H73        1.0     0.322640     0.781859     0.807520    Uiso  ? H
   C148       1.0     0.321185     0.761239     0.848655    Uiso  ? C
   H74        1.0     0.337623     0.745946     0.842326    Uiso  ? H
   C149       1.0     0.304308     0.756002     0.873204    Uiso  ? C
   H75        1.0     0.312889     0.740069     0.887866    Uiso  ? H
   C150       1.0     0.280873     0.774307     0.879231    Uiso  ? C
   C151       1.0     0.271155     0.794666     0.858786    Uiso  ? C
   H76        1.0     0.252166     0.806620     0.862671    Uiso  ? H
   C152       1.0     0.262992     0.769732     0.105581    Uiso  ? C
   C153       1.0     0.158985     0.276016     0.779627    Uiso  ? C
   C154       1.0     0.153880     0.301347     0.800630    Uiso  ? C
   C155       1.0     0.149298     0.330043     0.789999    Uiso  ? C
   H77        1.0     0.148604     0.334758     0.766719    Uiso  ? H
   C156       1.0     0.140611     0.351262     0.809243    Uiso  ? C
   H78        1.0     0.137599     0.373323     0.800813    Uiso  ? H
   C157       1.0     0.140806     0.346462     0.838767    Uiso  ? C
   H79        1.0     0.136671     0.364727     0.853597    Uiso  ? H
   C158       1.0     0.144482     0.318178     0.849439    Uiso  ? C
   C159       1.0     0.150366     0.294612     0.830363    Uiso  ? C
   H80        1.0     0.152143     0.271754     0.839570    Uiso  ? H
   C160       1.0     0.139421     0.313046     0.880758    Uiso  ? C
   C161       1.0     0.109244     0.241548     0.743926    Uiso  ? C
   C162       1.0     0.872898     0.252372     0.743220    Uiso  ? C
   C163       1.0     0.864318     0.273311     0.722622    Uiso  ? C
   H81        1.0     0.879882     0.281026     0.706819    Uiso  ? H
   C164       1.0     0.835008     0.283138     0.721820    Uiso  ? C
   H82        1.0     0.827402     0.299351     0.704494    Uiso  ? H
   C165       1.0     0.816460     0.276844     0.744515    Uiso  ? C
   H83        1.0     0.795067     0.284510     0.742792    Uiso  ? H
   C166       1.0     0.825473     0.257344     0.766301    Uiso  ? C
   C167       1.0     0.853119     0.244047     0.764718    Uiso  ? C
   H84        1.0     0.858478     0.228242     0.781521    Uiso  ? H
   C168       1.0     0.804903     0.249662     0.790475    Uiso  ? C
   C169       1.0     0.278572     0.795941     0.174128    Uiso  ? C
   C170       1.0     0.298491     0.818898     0.182409    Uiso  ? C
   C171       1.0     0.328525     0.813702     0.188450    Uiso  ? C
   H85        1.0     0.337896     0.790968     0.190079    Uiso  ? H
   C172       1.0     0.347235     0.836712     0.196753    Uiso  ? C
   H86        1.0     0.369019     0.831654     0.204624    Uiso  ? H
   C173       1.0     0.336918     0.865746     0.195275    Uiso  ? C
   H87        1.0     0.353751     0.882581     0.197653    Uiso  ? H
   C174       1.0     0.306920     0.872931     0.187046    Uiso  ? C
   C175       1.0     0.288154     0.848528     0.181355    Uiso  ? C
   H88        1.0     0.266549     0.853573     0.174650    Uiso  ? H
   C176       1.0     0.300991     0.108497     0.176941    Uiso  ? C
   C177       1.0     0.215764     0.726234     0.117761    Uiso  ? C
   C178       1.0     0.202147     0.705409     0.896641    Uiso  ? C
   C179       1.0     0.215294     0.679501     0.889487    Uiso  ? C
   H89        1.0     0.238011     0.673373     0.895962    Uiso  ? H
   C180       1.0     0.199389     0.657049     0.875864    Uiso  ? C
   H90        1.0     0.211795     0.636813     0.873016    Uiso  ? H
   C181       1.0     0.170031     0.662234     0.868646    Uiso  ? C
   H91        1.0     0.157758     0.644741     0.857349    Uiso  ? H
   C182       1.0     0.157598     0.688765     0.873363    Uiso  ? C
   C183       1.0     0.172575     0.711213     0.887229    Uiso  ? C
   H92        1.0     0.161464     0.731244     0.892505    Uiso  ? H
   C184       1.0     0.125677     0.693030     0.868371    Uiso  ? C
   C185       1.0     0.811252     0.710060     0.844340    Uiso  ? C
   C186       1.0     0.779577     0.715634     0.845812    Uiso  ? C
   C187       1.0     0.760156     0.693600     0.853267    Uiso  ? C
   H93        1.0     0.766716     0.670532     0.854462    Uiso  ? H
   C188       1.0     0.729752     0.700744     0.856956    Uiso  ? C
   H94        1.0     0.714738     0.684767     0.865947    Uiso  ? H
   C189       1.0     0.720283     0.729586     0.854394    Uiso  ? C
   H95        1.0     0.697538     0.735063     0.858738    Uiso  ? H
   C190       1.0     0.739700     0.750554     0.846270    Uiso  ? C
   C191       1.0     0.768758     0.743441     0.841164    Uiso  ? C
   H96        1.0     0.784480     0.760471     0.833193    Uiso  ? H
   C192       1.0     0.731034     0.780905     0.844619    Uiso  ? C
   O55        1.0     0.124146     0.846853     0.719813    Uiso  ? O
   O56        1.0     0.112301     0.815294     0.684055    Uiso  ? O
   O57        1.0     0.106552     0.880339     0.712956    Uiso  ? O
   O58        1.0     0.877362     0.875707     0.671989    Uiso  ? O
   O59        1.0     0.832082     0.858998     0.732085    Uiso  ? O
   O60        1.0     0.824135     0.823921     0.700654    Uiso  ? O
   O61        1.0     0.877493     0.804539     0.742831    Uiso  ? O
   O62        1.0     0.879893     0.790457     0.697171    Uiso  ? O
   O63        1.0     0.279899     0.894202     0.812896    Uiso  ? O
   O64        1.0     0.314114     0.864534     0.797277    Uiso  ? O
   O65        1.0     0.264770     0.115946     0.782104    Uiso  ? O
   O66        1.0     0.289283     0.106291     0.741803    Uiso  ? O
   O67        1.0     0.225897     0.860420     0.753864    Uiso  ? O
   O68        1.0     0.259118     0.827520     0.739719    Uiso  ? O
   O69        1.0     0.252511     0.831741     0.813704    Uiso  ? O
   O70        1.0     0.296800     0.829254     0.792388    Uiso  ? O
   O71        1.0     0.160484     0.250553     0.789322    Uiso  ? O
   O72        1.0     0.155513     0.278882     0.751519    Uiso  ? O
   O73        1.0     0.115844     0.216528     0.753851    Uiso  ? O
   O74        1.0     0.129916     0.259644     0.734544    Uiso  ? O
   O75        1.0     0.135120     0.190944     0.734581    Uiso  ? O
   O76        1.0     0.159895     0.214049     0.699493    Uiso  ? O
   O77        1.0     0.193977     0.194960     0.752702    Uiso  ? O
   O78        1.0     0.213543     0.237880     0.744618    Uiso  ? O
   O79        1.0     0.252522     0.802569     0.170916    Uiso  ? O
   O80        1.0     0.287573     0.771327     0.166889    Uiso  ? O
   O81        1.0     0.237150     0.778835     0.108716    Uiso  ? O
   O82        1.0     0.276689     0.759724     0.127409    Uiso  ? O
   O83        1.0     0.207572     0.753366     0.118700    Uiso  ? O
   O84        1.0     0.235158     0.716800     0.134656    Uiso  ? O
   O85        1.0     0.189286     0.763989     0.174049    Uiso  ? O
   O86        1.0     0.227209     0.750558     0.200175    Uiso  ? O
   O87        1.0     0.115087     0.718411     0.862330    Uiso  ? O
   O88        1.0     0.108708     0.670652     0.870094    Uiso  ? O
   O89        1.0     0.859627     0.727588     0.820863    Uiso  ? O
   O90        1.0     0.877683     0.683804     0.812344    Uiso  ? O
   O91        1.0     0.830018     0.729438     0.837581    Uiso  ? O
   O92        1.0     0.820468     0.686090     0.855914    Uiso  ? O
   O93        1.0     0.853195     0.703779     0.100936    Uiso  ? O
   O94        1.0     0.877740     0.663072     0.892540    Uiso  ? O
   O95        1.0     0.268384     0.156203     0.194971    Uiso  ? O
   O96        1.0     0.311570     0.168337     0.212012    Uiso  ? O
   O97        1.0     0.253086     0.195897     0.158180    Uiso  ? O
   O98        1.0     0.299875     0.209251     0.154500    Uiso  ? O
   O99        1.0     0.294381     0.150280     0.110129    Uiso  ? O
   O100       1.0     0.332225     0.140002     0.135887    Uiso  ? O
   O101       1.0     0.274269     0.119562     0.177507    Uiso  ? O
   O102       1.0     0.322533     0.124016     0.168677    Uiso  ? O
   O103       1.0     0.876222     0.863820     0.782539    Uiso  ? O
   O104       1.0     0.201689     0.879347     0.813680    Uiso  ? O
   O105       1.0     0.157019     0.188797     0.808542    Uiso  ? O
   O106       1.0     0.192352     0.829068     0.136858    Uiso  ? O
   O107       1.0     0.868731     0.763093     0.888552    Uiso  ? O
   O108       1.0     0.226390     0.145623     0.126465    Uiso  ? O
   Zn13       1.0     0.875425     0.849171     0.739296    Uiso  ? Zn
   Zn14       1.0     0.863706     0.830595     0.676881    Uiso  ? Zn
   Zn15       1.0     0.242252     0.868555     0.793263    Uiso  ? Zn
   Zn16       1.0     0.294699     0.854840     0.753314    Uiso  ? Zn
   Zn17       1.0     0.156583     0.209983     0.770239    Uiso  ? Zn
   Zn18       1.0     0.176476     0.249611     0.723685    Uiso  ? Zn
   Zn19       1.0     0.216460     0.788387     0.147384    Uiso  ? Zn
   Zn20       1.0     0.255501     0.740464     0.167083    Uiso  ? Zn
   Zn21       1.0     0.864927     0.724675     0.864975    Uiso  ? Zn
   Zn22       1.0     0.861671     0.663937     0.849810    Uiso  ? Zn
   Zn23       1.0     0.265512     0.155158     0.148102    Uiso  ? Zn
   Zn24       1.0     0.326787     0.173259     0.169238    Uiso  ? Zn
   H97        1.0     0.185949     0.865340     0.814746    Uiso  ? H
   H98        1.0     0.197777     0.104668     0.820402    Uiso  ? H
   H99        1.0     0.815805     0.132527     0.161423    Uiso  ? H
   H100       1.0     0.828400     0.112241     0.190112    Uiso  ? H
   H101       1.0     0.782702     0.846294     0.889258    Uiso  ? H
   H102       1.0     0.796225     0.868701     0.864220    Uiso  ? H
   H103       1.0     0.822001     0.162255     0.849341    Uiso  ? H
   H104       1.0     0.839782     0.188622     0.866430    Uiso  ? H
   H105       1.0     0.208426     0.149486     0.136003    Uiso  ? H
   H106       1.0     0.227275     0.146608     0.105480    Uiso  ? H
   H107       1.0     0.148761     0.154511     0.198024    Uiso  ? H
   H108       1.0     0.132807     0.122466     0.205309    Uiso  ? H
   H109       1.0     0.123204     0.223322     0.898491    Uiso  ? H
   H110       1.0     0.118622     0.214606     0.131271    Uiso  ? H
   H111       1.0     0.199140     0.842267     0.122848    Uiso  ? H
   H112       1.0     0.174836     0.832774     0.148628    Uiso  ? H
   H113       1.0     0.860382     0.807893     0.162398    Uiso  ? H
   H114       1.0     0.842416     0.830708     0.181226    Uiso  ? H
   H115       1.0     0.852333     0.770132     0.898908    Uiso  ? H
   H116       1.0     0.887602     0.765998     0.898605    Uiso  ? H
   H117       1.0     0.149200     0.169352     0.803967    Uiso  ? H
   H118       1.0     0.162655     0.199393     0.826576    Uiso  ? H
   H119       1.0     0.863101     0.859070     0.797719    Uiso  ? H
   H120       1.0     0.890245     0.879203     0.788500    Uiso  ? H
   C193       1.0     0.207825     0.319724     0.489197    Uiso  ? C
   C194       1.0     0.185757     0.298630     0.497454    Uiso  ? C
   C195       1.0     0.184119     0.271526     0.482975    Uiso  ? C
   H121       1.0     0.201284     0.264328     0.467858    Uiso  ? H
   C196       1.0     0.161482     0.252999     0.490848    Uiso  ? C
   H122       1.0     0.158790     0.233374     0.479605    Uiso  ? H
   C197       1.0     0.140398     0.261454     0.511020    Uiso  ? C
   H123       1.0     0.123117     0.246619     0.517777    Uiso  ? H
   C198       1.0     0.143449     0.286617     0.527570    Uiso  ? C
   C199       1.0     0.165730     0.306110     0.520188    Uiso  ? C
   H124       1.0     0.167976     0.324219     0.534372    Uiso  ? H
   C200       1.0     0.119884     0.297086     0.546781    Uiso  ? C
   C201       1.0     0.210260     0.341338     0.421986    Uiso  ? C
   C202       1.0     0.190431     0.329362     0.398898    Uiso  ? C
   C203       1.0     0.199618     0.305204     0.383378    Uiso  ? C
   H125       1.0     0.220260     0.295451     0.388538    Uiso  ? H
   C204       1.0     0.179352     0.290107     0.363376    Uiso  ? C
   H126       1.0     0.183859     0.269764     0.353522    Uiso  ? H
   C205       1.0     0.151734     0.302474     0.360154    Uiso  ? C
   H127       1.0     0.134664     0.291186     0.347049    Uiso  ? H
   C206       1.0     0.144708     0.329250     0.372747    Uiso  ? C
   C207       1.0     0.163933     0.342362     0.393306    Uiso  ? C
   H128       1.0     0.156240     0.361915     0.405856    Uiso  ? H
   C208       1.0     0.115484     0.340609     0.370676    Uiso  ? C
   C209       1.0     0.278124     0.395297     0.445718    Uiso  ? C
   C210       1.0     0.297794     0.417479     0.432543    Uiso  ? C
   C211       1.0     0.321358     0.408470     0.414978    Uiso  ? C
   H129       1.0     0.325702     0.385201     0.409335    Uiso  ? H
   C212       1.0     0.339722     0.429127     0.401613    Uiso  ? C
   H130       1.0     0.354861     0.421788     0.384917    Uiso  ? H
   C213       1.0     0.334326     0.459221     0.406409    Uiso  ? C
   H131       1.0     0.347193     0.473172     0.392740    Uiso  ? H
   C214       1.0     0.311096     0.468518     0.425406    Uiso  ? C
   C215       1.0     0.294592     0.447832     0.438520    Uiso  ? C
   H132       1.0     0.275018     0.453781     0.450798    Uiso  ? H
   C216       1.0     0.304785     0.499664     0.431929    Uiso  ? C
   C217       1.0     0.256729     0.360012     0.523123    Uiso  ? C
   C218       1.0     0.265134     0.362105     0.554800    Uiso  ? C
   C219       1.0     0.281882     0.339224     0.568144    Uiso  ? C
   H133       1.0     0.287794     0.319299     0.556545    Uiso  ? H
   C220       1.0     0.289342     0.342972     0.597757    Uiso  ? C
   H134       1.0     0.300008     0.325267     0.610026    Uiso  ? H
   C221       1.0     0.284505     0.370117     0.613313    Uiso  ? C
   H135       1.0     0.292668     0.373480     0.634835    Uiso  ? H
   C222       1.0     0.265353     0.389931     0.601225    Uiso  ? C
   C223       1.0     0.257414     0.385865     0.571843    Uiso  ? C
   H136       1.0     0.247390     0.404690     0.561195    Uiso  ? H
   C224       1.0     0.261443     0.418724     0.614693    Uiso  ? C
   C225       1.0     0.810584     0.327482     0.565427    Uiso  ? C
   C226       1.0     0.779625     0.337355     0.568703    Uiso  ? C
   C227       1.0     0.757295     0.315608     0.574499    Uiso  ? C
   H137       1.0     0.763626     0.294503     0.577866    Uiso  ? H
   C228       1.0     0.728250     0.323413     0.570596    Uiso  ? C
   H138       1.0     0.711882     0.305555     0.571769    Uiso  ? H
   C229       1.0     0.720215     0.351875     0.563062    Uiso  ? C
   H139       1.0     0.696608     0.355057     0.561730    Uiso  ? H
   C230       1.0     0.740379     0.374301     0.563800    Uiso  ? C
   C231       1.0     0.769911     0.366649     0.563846    Uiso  ? C
   H140       1.0     0.785801     0.381984     0.558437    Uiso  ? H
   C232       1.0     0.731696     0.404784     0.565495    Uiso  ? C
   C233       1.0     0.853311     0.297353     0.518186    Uiso  ? C
   C234       1.0     0.855019     0.288482     0.487210    Uiso  ? C
   C235       1.0     0.858642     0.258087     0.480420    Uiso  ? C
   H141       1.0     0.861913     0.240657     0.497052    Uiso  ? H
   C236       1.0     0.859524     0.250301     0.450237    Uiso  ? C
   H142       1.0     0.862368     0.227746     0.446618    Uiso  ? H
   C237       1.0     0.856240     0.270830     0.428704    Uiso  ? C
   H143       1.0     0.859214     0.263328     0.406166    Uiso  ? H
   C238       1.0     0.852994     0.300194     0.434675    Uiso  ? C
   C239       1.0     0.854082     0.308912     0.463737    Uiso  ? C
   H144       1.0     0.851149     0.331902     0.471757    Uiso  ? H
   C240       1.0     0.853992     0.322478     0.410593    Uiso  ? C
   C241       1.0     0.871027     0.337418     0.624313    Uiso  ? C
   C242       1.0     0.877755     0.348886     0.653219    Uiso  ? C
   C243       1.0     0.893828     0.334031     0.674647    Uiso  ? C
   H145       1.0     0.106861     0.312170     0.670875    Uiso  ? H
   C244       1.0     0.104960     0.347023     0.702198    Uiso  ? C
   H146       1.0     0.116731     0.333987     0.716942    Uiso  ? H
   C245       1.0     0.891273     0.374981     0.708154    Uiso  ? C
   H147       1.0     0.895097     0.384288     0.729005    Uiso  ? H
   C246       1.0     0.874816     0.390399     0.688704    Uiso  ? C
   C247       1.0     0.868041     0.377735     0.660722    Uiso  ? C
   H148       1.0     0.853623     0.388195     0.645315    Uiso  ? H
   C248       1.0     0.862514     0.420737     0.696062    Uiso  ? C
   C249       1.0     0.806854     0.383528     0.358471    Uiso  ? C
   C250       1.0     0.777605     0.397385     0.354483    Uiso  ? C
   C251       1.0     0.751772     0.382500     0.348501    Uiso  ? C
   H149       1.0     0.753618     0.358829     0.343594    Uiso  ? H
   C252       1.0     0.724244     0.396765     0.344837    Uiso  ? C
   H150       1.0     0.704238     0.384640     0.338608    Uiso  ? H
   C253       1.0     0.724397     0.427562     0.347433    Uiso  ? C
   H151       1.0     0.705005     0.439776     0.343214    Uiso  ? H
   C254       1.0     0.750213     0.443137     0.354332    Uiso  ? C
   C255       1.0     0.776194     0.428689     0.358272    Uiso  ? C
   H152       1.0     0.797736     0.439092     0.363738    Uiso  ? H
   C256       1.0     0.748586     0.473421     0.360563    Uiso  ? C
   C257       1.0     0.883726     0.390062     0.326027    Uiso  ? C
   C258       1.0     0.892985     0.410023     0.303217    Uiso  ? C
   C259       1.0     0.881658     0.404817     0.274536    Uiso  ? C
   H153       1.0     0.870572     0.385400     0.268148    Uiso  ? H
   C260       1.0     0.884204     0.426585     0.253226    Uiso  ? C
   H154       1.0     0.875630     0.421718     0.231673    Uiso  ? H
   C261       1.0     0.106176     0.451726     0.257532    Uiso  ? C
   H155       1.0     0.109267     0.466843     0.241321    Uiso  ? H
   C262       1.0     0.116889     0.458048     0.287091    Uiso  ? C
   C263       1.0     0.113627     0.436843     0.308945    Uiso  ? C
   H156       1.0     0.121296     0.442506     0.330139    Uiso  ? H
   C264       1.0     0.132245     0.487218     0.294040    Uiso  ? C
   C265       1.0     0.796771     0.479374     0.698099    Uiso  ? C
   C266       1.0     0.765214     0.475375     0.693186    Uiso  ? C
   C267       1.0     0.747234     0.467009     0.716009    Uiso  ? C
   H157       1.0     0.755721     0.465733     0.738977    Uiso  ? H
   C268       1.0     0.717789     0.459121     0.710750    Uiso  ? C
   H158       1.0     0.703406     0.452108     0.728800    Uiso  ? H
   C269       1.0     0.706562     0.462942     0.682067    Uiso  ? C
   H159       1.0     0.684000     0.454255     0.679556    Uiso  ? H
   C270       1.0     0.724891     0.470997     0.658167    Uiso  ? C
   C271       1.0     0.754268     0.476565     0.664457    Uiso  ? C
   H160       1.0     0.769081     0.482541     0.645903    Uiso  ? H
   C272       1.0     0.716262     0.465644     0.627069    Uiso  ? C
   C273       1.0     0.113533     0.471855     0.711399    Uiso  ? C
   C274       1.0     0.145507     0.467308     0.716027    Uiso  ? C
   C275       1.0     0.155427     0.454021     0.742087    Uiso  ? C
   H161       1.0     0.138855     0.450654     0.758605    Uiso  ? H
   C276       1.0     0.184043     0.444701     0.745269    Uiso  ? C
   H162       1.0     0.190832     0.435705     0.765212    Uiso  ? H
   C277       1.0     0.203851     0.447939     0.723227    Uiso  ? C
   H163       1.0     0.225737     0.442082     0.728414    Uiso  ? H
   C278       1.0     0.195106     0.462842     0.698165    Uiso  ? C
   C279       1.0     0.166047     0.471927     0.695092    Uiso  ? C
   H164       1.0     0.161317     0.479935     0.673644    Uiso  ? H
   C280       1.0     0.216362     0.466386     0.674435    Uiso  ? C
   C281       1.0     0.294022     0.482851     0.592494    Uiso  ? C
   C282       1.0     0.315169     0.486797     0.567947    Uiso  ? C
   C283       1.0     0.344845     0.476598     0.571118    Uiso  ? C
   H165       1.0     0.351207     0.462560     0.589974    Uiso  ? H
   C284       1.0     0.363961     0.481433     0.548524    Uiso  ? C
   H166       1.0     0.386033     0.472901     0.548961    Uiso  ? H
   C285       1.0     0.354625     0.494484     0.523202    Uiso  ? C
   H167       1.0     0.369755     0.493143     0.504737    Uiso  ? H
   C286       1.0     0.325957     0.504964     0.519136    Uiso  ? C
   C287       1.0     0.306274     0.500872     0.542027    Uiso  ? C
   H168       1.0     0.284911     0.510448     0.540725    Uiso  ? H
   C288       1.0     0.317901     0.522027     0.493429    Uiso  ? C
   O109       1.0     0.205567     0.346691     0.496821    Uiso  ? O
   O110       1.0     0.225936     0.313789     0.468000    Uiso  ? O
   O111       1.0     0.204986     0.365911     0.433928    Uiso  ? O
   O112       1.0     0.227963     0.323767     0.434539    Uiso  ? O
   O113       1.0     0.260828     0.401244     0.466039    Uiso  ? O
   O114       1.0     0.278543     0.369678     0.436446    Uiso  ? O
   O115       1.0     0.230642     0.367224     0.515976    Uiso  ? O
   O116       1.0     0.273044     0.347868     0.504593    Uiso  ? O
   O117       1.0     0.828085     0.342458     0.552601    Uiso  ? O
   O118       1.0     0.819555     0.304603     0.579932    Uiso  ? O
   O119       1.0     0.851728     0.324566     0.524445    Uiso  ? O
   O120       1.0     0.860754     0.279246     0.537998    Uiso  ? O
   O121       1.0     0.116669     0.324254     0.550140    Uiso  ? O
   O122       1.0     0.895407     0.279845     0.554399    Uiso  ? O
   O123       1.0     0.862396     0.355466     0.605152    Uiso  ? O
   O124       1.0     0.880356     0.312526     0.617058    Uiso  ? O
   O125       1.0     0.827871     0.397769     0.368440    Uiso  ? O
   O126       1.0     0.809415     0.356673     0.353380    Uiso  ? O
   O127       1.0     0.892612     0.393231     0.351864    Uiso  ? O
   O128       1.0     0.868089     0.368999     0.319401    Uiso  ? O
   O129       1.0     0.110293     0.368414     0.374323    Uiso  ? O
   O130       1.0     0.889203     0.323413     0.366623    Uiso  ? O
   O131       1.0     0.852073     0.349501     0.416149    Uiso  ? O
   O132       1.0     0.861108     0.314675     0.384472    Uiso  ? O
   O133       1.0     0.810938     0.494357     0.680274    Uiso  ? O
   O134       1.0     0.809212     0.462512     0.714513    Uiso  ? O
   O135       1.0     0.855591     0.436677     0.673736    Uiso  ? O
   O136       1.0     0.867155     0.432032     0.721108    Uiso  ? O
   O137       1.0     0.103887     0.486801     0.689840    Uiso  ? O
   O138       1.0     0.890946     0.460457     0.728844    Uiso  ? O
   O139       1.0     0.878519     0.516290     0.689713    Uiso  ? O
   O140       1.0     0.858295     0.517109     0.734797    Uiso  ? O
   O141       1.0     0.210736     0.484159     0.653756    Uiso  ? O
   O142       1.0     0.239498     0.451353     0.672321    Uiso  ? O
   O143       1.0     0.236561     0.432355     0.611767    Uiso  ? O
   O144       1.0     0.283649     0.432720     0.623843    Uiso  ? O
   O145       1.0     0.269648     0.494261     0.591928    Uiso  ? O
   O146       1.0     0.298775     0.463074     0.611304    Uiso  ? O
   O147       1.0     0.230146     0.510514     0.642531    Uiso  ? O
   O148       1.0     0.276923     0.511579     0.648462    Uiso  ? O
   O149       1.0     0.727215     0.504486     0.585414    Uiso  ? O
   O150       1.0     0.679530     0.495904     0.579596    Uiso  ? O
   O151       1.0     0.711980     0.476463     0.526845    Uiso  ? O
   O152       1.0     0.666691     0.475650     0.542020    Uiso  ? O
   O153       1.0     0.751859     0.423960     0.565346    Uiso  ? O
   O154       1.0     0.703828     0.410608     0.568801    Uiso  ? O
   O155       1.0     0.735620     0.471621     0.607584    Uiso  ? O
   O156       1.0     0.690148     0.457181     0.619998    Uiso  ? O
   O157       1.0     0.192916     0.419759     0.475362    Uiso  ? O
   O158       1.0     0.890679     0.385258     0.544359    Uiso  ? O
   O159       1.0     0.876058     0.419831     0.415210    Uiso  ? O
   O160       1.0     0.849996     0.488850     0.627820    Uiso  ? O
   O161       1.0     0.202724     0.485504     0.578559    Uiso  ? O
   O162       1.0     0.782065     0.473416     0.543820    Uiso  ? O
   Zn25       1.0     0.219943     0.383375     0.473532    Uiso  ? Zn
   Zn26       1.0     0.265123     0.335042     0.461106    Uiso  ? Zn
   Zn27       1.0     0.872671     0.345957     0.562499    Uiso  ? Zn
   Zn28       1.0     0.860872     0.285311     0.584839    Uiso  ? Zn
   Zn29       1.0     0.865268     0.385123     0.387649    Uiso  ? Zn
   Zn30       1.0     0.850559     0.336350     0.345402    Uiso  ? Zn
   Zn31       1.0     0.853973     0.482584     0.672360    Uiso  ? Zn
   Zn32       1.0     0.848677     0.470968     0.735127    Uiso  ? Zn
   Zn33       1.0     0.231909     0.476843     0.612219    Uiso  ? Zn
   Zn34       1.0     0.278683     0.466323     0.654450    Uiso  ? Zn
   Zn35       1.0     0.739387     0.467138     0.561577    Uiso  ? Zn
   Zn36       1.0     0.676870     0.447544     0.578508    Uiso  ? Zn
   C289       1.0     0.797266     0.688287     0.514630    Uiso  ? C
   C290       1.0     0.820381     0.709163     0.504746    Uiso  ? C
   C291       1.0     0.817013     0.740036     0.510156    Uiso  ? C
   H169       1.0     0.797570     0.750064     0.520728    Uiso  ? H
   C292       1.0     0.840566     0.758715     0.503582    Uiso  ? C
   H170       1.0     0.840470     0.781093     0.510564    Uiso  ? H
   C293       1.0     0.866440     0.748621     0.491276    Uiso  ? C
   H171       1.0     0.884045     0.763122     0.488970    Uiso  ? H
   C294       1.0     0.869011     0.718464     0.484067    Uiso  ? C
   C295       1.0     0.845851     0.698735     0.491667    Uiso  ? C
   H172       1.0     0.849906     0.675348     0.488295    Uiso  ? H
   C296       1.0     0.895615     0.708510     0.467371    Uiso  ? C
   C297       1.0     0.797948     0.663727     0.578288    Uiso  ? C
   C298       1.0     0.817397     0.673026     0.602315    Uiso  ? C
   C299       1.0     0.805618     0.688490     0.625307    Uiso  ? C
   H173       1.0     0.782997     0.696972     0.623158    Uiso  ? H
   C300       1.0     0.822940     0.697660     0.647853    Uiso  ? C
   H174       1.0     0.814430     0.710276     0.665577    Uiso  ? H
   C301       1.0     0.852149     0.690307     0.648982    Uiso  ? C
   H175       1.0     0.865425     0.701091     0.665448    Uiso  ? H
   C302       1.0     0.863062     0.669827     0.629305    Uiso  ? C
   C303       1.0     0.844846     0.659879     0.607023    Uiso  ? C
   H176       1.0     0.852717     0.645859     0.590673    Uiso  ? H
   C304       1.0     0.893855     0.661168     0.630454    Uiso  ? C
   C305       1.0     0.724312     0.619984     0.568225    Uiso  ? C
   C306       1.0     0.707110     0.597890     0.584789    Uiso  ? C
   C307       1.0     0.678514     0.605064     0.594156    Uiso  ? C
   H177       1.0     0.673072     0.626608     0.596995    Uiso  ? H
   C308       1.0     0.658191     0.583610     0.602448    Uiso  ? C
   H178       1.0     0.638121     0.587329     0.611797    Uiso  ? H
   C309       1.0     0.665885     0.554305     0.598993    Uiso  ? C
   H179       1.0     0.651028     0.537902     0.607788    Uiso  ? H
   C310       1.0     0.693998     0.545932     0.588923    Uiso  ? C
   C311       1.0     0.714105     0.567657     0.582994    Uiso  ? C
   H180       1.0     0.735467     0.560734     0.573807    Uiso  ? H
   C312       1.0     0.701102     0.513595     0.584927    Uiso  ? C
   C313       1.0     0.747531     0.646038     0.481680    Uiso  ? C
   C314       1.0     0.733982     0.638491     0.453213    Uiso  ? C
   C315       1.0     0.711432     0.654044     0.441512    Uiso  ? C
   H181       1.0     0.702888     0.671998     0.453814    Uiso  ? H
   C316       1.0     0.699134     0.646920     0.414793    Uiso  ? C
   H182       1.0     0.682091     0.659930     0.405802    Uiso  ? H
   C317       1.0     0.708435     0.622843     0.398975    Uiso  ? C
   H183       1.0     0.694928     0.616132     0.381240    Uiso  ? H
   C318       1.0     0.730768     0.607028     0.410030    Uiso  ? C
   C319       1.0     0.744810     0.614084     0.436494    Uiso  ? C
   H184       1.0     0.762148     0.602765     0.445581    Uiso  ? H
   C320       1.0     0.735221     0.578508     0.397079    Uiso  ? C
   C321       1.0     0.205622     0.675833     0.448769    Uiso  ? C
   C322       1.0     0.237087     0.670456     0.451556    Uiso  ? C
   C323       1.0     0.257534     0.691353     0.442650    Uiso  ? C
   H185       1.0     0.249478     0.709108     0.430296    Uiso  ? H
   C324       1.0     0.286582     0.684756     0.440069    Uiso  ? C
   H186       1.0     0.300142     0.699401     0.427411    Uiso  ? H
   C325       1.0     0.296783     0.655887     0.445541    Uiso  ? C
   H187       1.0     0.318722     0.650404     0.439894    Uiso  ? H
   C326       1.0     0.277901     0.636667     0.458876    Uiso  ? C
   C327       1.0     0.248030     0.643647     0.462462    Uiso  ? C
   H188       1.0     0.232933     0.626311     0.471527    Uiso  ? H
   C328       1.0     0.286726     0.605905     0.460492    Uiso  ? C
   C329       1.0     0.159252     0.708173     0.495004    Uiso  ? C
   C330       1.0     0.164348     0.720392     0.525294    Uiso  ? C
   C331       1.0     0.169214     0.750071     0.530125    Uiso  ? C
   H189       1.0     0.172870     0.764463     0.512224    Uiso  ? H
   C332       1.0     0.168466     0.760272     0.558740    Uiso  ? C
   H190       1.0     0.170937     0.782973     0.562551    Uiso  ? H
   C333       1.0     0.165018     0.740578     0.582937    Uiso  ? C
   H191       1.0     0.162441     0.748702     0.604237    Uiso  ? H
   C334       1.0     0.165972     0.710613     0.577687    Uiso  ? C
   C335       1.0     0.166486     0.700639     0.548747    Uiso  ? C
   H192       1.0     0.163181     0.677237     0.545482    Uiso  ? H
   C336       1.0     0.162288     0.689894     0.602040    Uiso  ? C
   C337       1.0     0.130921     0.673063     0.393572    Uiso  ? C
   C338       1.0     0.120554     0.662109     0.364823    Uiso  ? C
   C339       1.0     0.105404     0.679626     0.344332    Uiso  ? C
   H193       1.0     0.895945     0.702168     0.350384    Uiso  ? H
   C340       1.0     0.892671     0.668558     0.317268    Uiso  ? C
   H194       1.0     0.885434     0.683989     0.301867    Uiso  ? H
   C341       1.0     0.104865     0.640131     0.308805    Uiso  ? C
   H195       1.0     0.893287     0.632498     0.286765    Uiso  ? H
   C342       1.0     0.119355     0.622592     0.328707    Uiso  ? C
   C343       1.0     0.126911     0.633369     0.355394    Uiso  ? C
   H196       1.0     0.140534     0.620493     0.369619    Uiso  ? H
   C344       1.0     0.125872     0.592518     0.321533    Uiso  ? C
   C345       1.0     0.196609     0.617696     0.652712    Uiso  ? C
   C346       1.0     0.223390     0.601679     0.656488    Uiso  ? C
   C347       1.0     0.249480     0.616547     0.665533    Uiso  ? C
   H197       1.0     0.249052     0.638641     0.673483    Uiso  ? H
   C348       1.0     0.275949     0.601365     0.670194    Uiso  ? C
   H198       1.0     0.296115     0.611985     0.676516    Uiso  ? H
   C349       1.0     0.276163     0.571708     0.661509    Uiso  ? C
   H199       1.0     0.296792     0.561540     0.660032    Uiso  ? H
   C350       1.0     0.251457     0.555975     0.654297    Uiso  ? C
   C351       1.0     0.224744     0.571909     0.650620    Uiso  ? C
   H200       1.0     0.205340     0.561158     0.644496    Uiso  ? H
   C352       1.0     0.252487     0.524691     0.648573    Uiso  ? C
   C353       1.0     0.130772     0.619930     0.680864    Uiso  ? C
   C354       1.0     0.116904     0.602686     0.704478    Uiso  ? C
   C355       1.0     0.112225     0.616755     0.731386    Uiso  ? C
   H201       1.0     0.117737     0.640176     0.733054    Uiso  ? H
   C356       1.0     0.890756     0.601371     0.752078    Uiso  ? C
   H202       1.0     0.884462     0.609364     0.773716    Uiso  ? H
   C357       1.0     0.881564     0.573828     0.747721    Uiso  ? C
   H203       1.0     0.869976     0.563743     0.765413    Uiso  ? H
   C358       1.0     0.884942     0.559282     0.720807    Uiso  ? C
   C359       1.0     0.105037     0.574824     0.698853    Uiso  ? C
   H204       1.0     0.107642     0.564785     0.677123    Uiso  ? H
   C360       1.0     0.873468     0.529518     0.714874    Uiso  ? C
   C361       1.0     0.201721     0.544357     0.314850    Uiso  ? C
   C362       1.0     0.232490     0.542514     0.324147    Uiso  ? C
   C363       1.0     0.252560     0.528264     0.304846    Uiso  ? C
   H205       1.0     0.248292     0.523283     0.281898    Uiso  ? H
   C364       1.0     0.280786     0.522621     0.314278    Uiso  ? C
   H206       1.0     0.297320     0.513763     0.300873    Uiso  ? H
   C365       1.0     0.289471     0.529470     0.341458    Uiso  ? C
   H207       1.0     0.312799     0.524521     0.348586    Uiso  ? H
   C366       1.0     0.269498     0.543678     0.360526    Uiso  ? C
   C367       1.0     0.241811     0.551647     0.350794    Uiso  ? C
   H208       1.0     0.227773     0.562527     0.365363    Uiso  ? H
   C368       1.0     0.279840     0.550494     0.390641    Uiso  ? C
   C369       1.0     0.882212     0.539697     0.301485    Uiso  ? C
   C370       1.0     0.850658     0.541003     0.295558    Uiso  ? C
   C371       1.0     0.839275     0.546069     0.267087    Uiso  ? C
   H209       1.0     0.854980     0.548607     0.250046    Uiso  ? H
   C372       1.0     0.809011     0.548354     0.262741    Uiso  ? C
   H210       1.0     0.800671     0.550848     0.240930    Uiso  ? H
   C373       1.0     0.789501     0.544447     0.284844    Uiso  ? C
   H211       1.0     0.768022     0.548998     0.279148    Uiso  ? H
   C374       1.0     0.800099     0.538865     0.313051    Uiso  ? C
   C375       1.0     0.830000     0.537934     0.318091    Uiso  ? C
   H212       1.0     0.838258     0.534731     0.340598    Uiso  ? H
   C376       1.0     0.779300     0.533918     0.337125    Uiso  ? C
   C377       1.0     0.703764     0.515071     0.417861    Uiso  ? C
   C378       1.0     0.683474     0.513289     0.443945    Uiso  ? C
   C379       1.0     0.653850     0.522259     0.442438    Uiso  ? C
   H213       1.0     0.644081     0.531533     0.423790    Uiso  ? H
   C380       1.0     0.635986     0.519419     0.467219    Uiso  ? C
   H214       1.0     0.612952     0.524986     0.464827    Uiso  ? H
   C381       1.0     0.645173     0.504211     0.491785    Uiso  ? C
   H215       1.0     0.630327     0.502966     0.509817    Uiso  ? H
   C382       1.0     0.674677     0.495545     0.493860    Uiso  ? C
   C383       1.0     0.693157     0.498662     0.469136    Uiso  ? C
   H216       1.0     0.714801     0.489350     0.470927    Uiso  ? H
   C384       1.0     0.685149     0.481957     0.521975    Uiso  ? C
   O163       1.0     0.798059     0.662338     0.505146    Uiso  ? O
   O164       1.0     0.779496     0.695051     0.535290    Uiso  ? O
   O165       1.0     0.800999     0.639233     0.567838    Uiso  ? O
   O166       1.0     0.777623     0.680336     0.568679    Uiso  ? O
   O167       1.0     0.739791     0.609393     0.546700    Uiso  ? O
   O168       1.0     0.724485     0.646499     0.574599    Uiso  ? O
   O169       1.0     0.774663     0.640404     0.486891    Uiso  ? O
   O170       1.0     0.730228     0.654640     0.501802    Uiso  ? O
   O171       1.0     0.188332     0.664850     0.468267    Uiso  ? O
   O172       1.0     0.196000     0.694778     0.430272    Uiso  ? O
   O173       1.0     0.165285     0.681856     0.488149    Uiso  ? O
   O174       1.0     0.151499     0.725681     0.474827    Uiso  ? O
   O175       1.0     0.105842     0.680508     0.466991    Uiso  ? O
   O176       1.0     0.121272     0.726396     0.458743    Uiso  ? O
   O177       1.0     0.146149     0.656957     0.409652    Uiso  ? O
   O178       1.0     0.123291     0.698543     0.401154    Uiso  ? O
   O179       1.0     0.173486     0.603723     0.645767    Uiso  ? O
   O180       1.0     0.197013     0.645579     0.654487    Uiso  ? O
   O181       1.0     0.141061     0.607248     0.659360    Uiso  ? O
   O182       1.0     0.131242     0.647062     0.681218    Uiso  ? O
   O183       1.0     0.107046     0.641196     0.613972    Uiso  ? O
   O184       1.0     0.117813     0.674795     0.646294    Uiso  ? O
   O185       1.0     0.170012     0.663395     0.599227    Uiso  ? O
   O186       1.0     0.150437     0.699104     0.625577    Uiso  ? O
   O187       1.0     0.181968     0.552256     0.332299    Uiso  ? O
   O188       1.0     0.192833     0.533621     0.291358    Uiso  ? O
   O189       1.0     0.117967     0.571433     0.336634    Uiso  ? O
   O190       1.0     0.141708     0.588369     0.299087    Uiso  ? O
   O191       1.0     0.892278     0.543833     0.326571    Uiso  ? O
   O192       1.0     0.104645     0.538616     0.279019    Uiso  ? O
   O193       1.0     0.135842     0.493833     0.320607    Uiso  ? O
   O194       1.0     0.132664     0.506338     0.274208    Uiso  ? O
   O195       1.0     0.784574     0.517070     0.358202    Uiso  ? O
   O196       1.0     0.754561     0.546351     0.335627    Uiso  ? O
   O197       1.0     0.760042     0.565731     0.399942    Uiso  ? O
   O198       1.0     0.714642     0.563459     0.386444    Uiso  ? O
   O199       1.0     0.728055     0.500592     0.417664    Uiso  ? O
   O200       1.0     0.697477     0.532933     0.396186    Uiso  ? O
   O201       1.0     0.771340     0.486895     0.368433    Uiso  ? O
   O202       1.0     0.724487     0.486192     0.356844    Uiso  ? O
   O203       1.0     0.286715     0.506399     0.452100    Uiso  ? O
   O204       1.0     0.318032     0.519518     0.418090    Uiso  ? O
   O205       1.0     0.290738     0.521186     0.485895    Uiso  ? O
   O206       1.0     0.335402     0.535700     0.478037    Uiso  ? O
   O207       1.0     0.271664     0.587622     0.474181    Uiso  ? O
   O208       1.0     0.306427     0.598403     0.443237    Uiso  ? O
   O209       1.0     0.261007     0.553416     0.410711    Uiso  ? O
   O210       1.0     0.306208     0.546054     0.397933    Uiso  ? O
   O211       1.0     0.802643     0.586047     0.518884    Uiso  ? O
   O212       1.0     0.127010     0.617604     0.463008    Uiso  ? O
   O213       1.0     0.154174     0.600321     0.581437    Uiso  ? O
   O214       1.0     0.148216     0.522145     0.378914    Uiso  ? O
   O215       1.0     0.795163     0.517738     0.432971    Uiso  ? O
   O216       1.0     0.219183     0.546056     0.463574    Uiso  ? O
   Zn37       1.0     0.780835     0.624485     0.530077    Uiso  ? Zn
   Zn38       1.0     0.739905     0.674103     0.542927    Uiso  ? Zn
   Zn39       1.0     0.143954     0.658766     0.453906    Uiso  ? Zn
   Zn40       1.0     0.155278     0.717579     0.428359    Uiso  ? Zn
   Zn41       1.0     0.148226     0.628111     0.615892    Uiso  ? Zn
   Zn42       1.0     0.162170     0.674723     0.660495    Uiso  ? Zn
   Zn43       1.0     0.140846     0.534324     0.335972    Uiso  ? Zn
   Zn44       1.0     0.152072     0.548229     0.277342    Uiso  ? Zn
   Zn45       1.0     0.765188     0.520730     0.398704    Uiso  ? Zn
   Zn46       1.0     0.717584     0.530400     0.354804    Uiso  ? Zn
   Zn47       1.0     0.264510     0.548159     0.456020    Uiso  ? Zn
   Zn48       1.0     0.323398     0.560839     0.438206    Uiso  ? Zn
   H217       1.0     0.106358     0.615719     0.456810    Uiso  ? H
   H218       1.0     0.136906     0.599908     0.466718    Uiso  ? H
   H219       1.0     0.890415     0.391076     0.523914    Uiso  ? H
   H220       1.0     0.106111     0.397234     0.558135    Uiso  ? H
   H221       1.0     0.794231     0.456662     0.538303    Uiso  ? H
   H222       1.0     0.786627     0.492460     0.540267    Uiso  ? H
   H223       1.0     0.859020     0.504687     0.615695    Uiso  ? H
   H224       1.0     0.837688     0.477183     0.616436    Uiso  ? H
   H225       1.0     0.204921     0.543315     0.448208    Uiso  ? H
   H226       1.0     0.213197     0.537760     0.482283    Uiso  ? H
   H227       1.0     0.171529     0.417145     0.477769    Uiso  ? H
   H228       1.0     0.198959     0.439658     0.471239    Uiso  ? H
   H229       1.0     0.213713     0.486290     0.559592    Uiso  ? H
   H230       1.0     0.183206     0.491658     0.580528    Uiso  ? H
   H231       1.0     0.141748     0.530717     0.396721    Uiso  ? H
   H232       1.0     0.161135     0.505386     0.380580    Uiso  ? H
   H233       1.0     0.895193     0.418955     0.422534    Uiso  ? H
   H234       1.0     0.860000     0.424574     0.428278    Uiso  ? H
   H235       1.0     0.812995     0.506511     0.432305    Uiso  ? H
   H236       1.0     0.795397     0.534200     0.447586    Uiso  ? H
   H237       1.0     0.147570     0.580705     0.581924    Uiso  ? H
   H238       1.0     0.167550     0.606410     0.565490    Uiso  ? H
   H239       1.0     0.818509     0.588349     0.505251    Uiso  ? H
   H240       1.0     0.798265     0.565678     0.526460    Uiso  ? H
   C385       1.0     0.693546     0.815563     0.454917    Uiso  ? C
   C386       1.0     0.688807     0.782829     0.459514    Uiso  ? C
   C387       1.0     0.713105     0.764576     0.465373    Uiso  ? C
   H241       1.0     0.736094     0.772226     0.465089    Uiso  ? H
   C388       1.0     0.707496     0.735531     0.472453    Uiso  ? C
   H242       1.0     0.725660     0.722908     0.480210    Uiso  ? H
   C389       1.0     0.678532     0.724354     0.474320    Uiso  ? C
   H243       1.0     0.675601     0.704406     0.485554    Uiso  ? H
   C390       1.0     0.654465     0.741746     0.466463    Uiso  ? C
   C391       1.0     0.660401     0.771923     0.460752    Uiso  ? C
   H244       1.0     0.641679     0.785919     0.457813    Uiso  ? H
   C392       1.0     0.622382     0.731995     0.470034    Uiso  ? C
   C393       1.0     0.687038     0.866063     0.399117    Uiso  ? C
   C394       1.0     0.676164     0.861843     0.369392    Uiso  ? C
   C395       1.0     0.695697     0.867439     0.346671    Uiso  ? C
   H245       1.0     0.717450     0.874565     0.350471    Uiso  ? H
   C396       1.0     0.686697     0.865962     0.317637    Uiso  ? C
   H246       1.0     0.697986     0.875292     0.299482    Uiso  ? H
   C397       1.0     0.657896     0.855274     0.310685    Uiso  ? C
   H247       1.0     0.649290     0.854582     0.287301    Uiso  ? H
   C398       1.0     0.638724     0.849544     0.333463    Uiso  ? C
   C399       1.0     0.648482     0.852527     0.362026    Uiso  ? C
   H248       1.0     0.634121     0.846133     0.378907    Uiso  ? H
   C400       1.0     0.606331     0.846554     0.327896    Uiso  ? C
   C401       1.0     0.699881     0.129837     0.432176    Uiso  ? C
   C402       1.0     0.698606     0.161342     0.423644    Uiso  ? C
   C403       1.0     0.717461     0.172713     0.401154    Uiso  ? C
   H249       1.0     0.731246     0.158650     0.387492    Uiso  ? H
   C404       1.0     0.713755     0.202055     0.392174    Uiso  ? C
   H250       1.0     0.727996     0.210660     0.376086    Uiso  ? H
   C405       1.0     0.693941     0.219981     0.406481    Uiso  ? C
   H251       1.0     0.694127     0.242544     0.400689    Uiso  ? H
   C406       1.0     0.677147     0.209301     0.429619    Uiso  ? C
   C407       1.0     0.676855     0.178662     0.435487    Uiso  ? C
   H252       1.0     0.662854     0.171831     0.452187    Uiso  ? H
   C408       1.0     0.658252     0.228882     0.448813    Uiso  ? C
   C409       1.0     0.722783     0.882038     0.505711    Uiso  ? C
   C410       1.0     0.731633     0.893706     0.534346    Uiso  ? C
   C411       1.0     0.762659     0.107262     0.539837    Uiso  ? C
   H253       1.0     0.778175     0.103597     0.521210    Uiso  ? H
   C412       1.0     0.769140     0.120678     0.565977    Uiso  ? C
   H254       1.0     0.792645     0.126556     0.569489    Uiso  ? H
   C413       1.0     0.747354     0.124655     0.587633    Uiso  ? C
   H255       1.0     0.750781     0.135454     0.608146    Uiso  ? H
   C414       1.0     0.718918     0.115278     0.582940    Uiso  ? C
   C415       1.0     0.710514     0.896914     0.557434    Uiso  ? C
   H256       1.0     0.688973     0.890028     0.550024    Uiso  ? H
   C416       1.0     0.696479     0.119308     0.605767    Uiso  ? C
   C417       1.0     0.516517     0.692591     0.485565    Uiso  ? C
   C418       1.0     0.487983     0.680384     0.495235    Uiso  ? C
   C419       1.0     0.488791     0.654527     0.510627    Uiso  ? C
   H257       1.0     0.508952     0.642271     0.512379    Uiso  ? H
   C420       1.0     0.464122     0.644086     0.525196    Uiso  ? C
   H258       1.0     0.467031     0.623376     0.537436    Uiso  ? H
   C421       1.0     0.438837     0.661469     0.525349    Uiso  ? C
   H259       1.0     0.420610     0.653872     0.537978    Uiso  ? H
   C422       1.0     0.437367     0.688477     0.511130    Uiso  ? C
   C423       1.0     0.462927     0.698115     0.496177    Uiso  ? C
   H260       1.0     0.463613     0.719807     0.486657    Uiso  ? H
   C424       1.0     0.410595     0.707516     0.516709    Uiso  ? C
   C425       1.0     0.573403     0.726116     0.417809    Uiso  ? C
   C426       1.0     0.572605     0.733207     0.386044    Uiso  ? C
   C427       1.0     0.574444     0.710259     0.366055    Uiso  ? C
   H261       1.0     0.579373     0.688254     0.372845    Uiso  ? H
   C428       1.0     0.573636     0.715548     0.336623    Uiso  ? C
   H262       1.0     0.575466     0.698861     0.319530    Uiso  ? H
   C429       1.0     0.569159     0.744395     0.327580    Uiso  ? C
   H263       1.0     0.565835     0.749265     0.305099    Uiso  ? H
   C430       1.0     0.565508     0.767210     0.347001    Uiso  ? C
   C431       1.0     0.567633     0.763194     0.377317    Uiso  ? C
   H264       1.0     0.565071     0.781680     0.393642    Uiso  ? H
   C432       1.0     0.559729     0.796153     0.335383    Uiso  ? C
   C433       1.0     0.589889     0.708173     0.527024    Uiso  ? C
   C434       1.0     0.596733     0.704225     0.557115    Uiso  ? C
   C435       1.0     0.616263     0.681179     0.567323    Uiso  ? C
   H265       1.0     0.625857     0.666337     0.552160    Uiso  ? H
   C436       1.0     0.616019     0.673577     0.597552    Uiso  ? C
   H266       1.0     0.630386     0.655263     0.604739    Uiso  ? H
   C437       1.0     0.600983     0.690512     0.617458    Uiso  ? C
   H267       1.0     0.601175     0.686103     0.639665    Uiso  ? H
   C438       1.0     0.584141     0.715179     0.607646    Uiso  ? C
   C439       1.0     0.583931     0.722537     0.578268    Uiso  ? C
   H268       1.0     0.570670     0.740934     0.570607    Uiso  ? H
   C440       1.0     0.560063     0.728403     0.626951    Uiso  ? C
   C441       1.0     0.498299     0.823569     0.316176    Uiso  ? C
   C442       1.0     0.470248     0.807463     0.317591    Uiso  ? C
   C443       1.0     0.465934     0.781357     0.304011    Uiso  ? C
   H269       1.0     0.483833     0.774283     0.291539    Uiso  ? H
   C444       1.0     0.437544     0.769887     0.299301    Uiso  ? C
   H270       1.0     0.434316     0.750868     0.287014    Uiso  ? H
   C445       1.0     0.413111     0.786266     0.309390    Uiso  ? C
   H271       1.0     0.390676     0.777225     0.305645    Uiso  ? H
   C446       1.0     0.416002     0.811283     0.326361    Uiso  ? C
   C447       1.0     0.445188     0.821796     0.330583    Uiso  ? C
   H272       1.0     0.448256     0.843661     0.340578    Uiso  ? H
   C448       1.0     0.390172     0.826827     0.339049    Uiso  ? C
   C449       1.0     0.539266     0.103450     0.290902    Uiso  ? C
   C450       1.0     0.528566     0.130870     0.278063    Uiso  ? C
   C451       1.0     0.523798     0.133333     0.247738    Uiso  ? C
   H273       1.0     0.531507     0.114814     0.233938    Uiso  ? H
   C452       1.0     0.514145     0.160285     0.235624    Uiso  ? C
   H274       1.0     0.509627     0.161071     0.213163    Uiso  ? H
   C453       1.0     0.506076     0.182479     0.254750    Uiso  ? C
   H275       1.0     0.494724     0.201597     0.245353    Uiso  ? H
   C454       1.0     0.507653     0.179828     0.284263    Uiso  ? C
   C455       1.0     0.518841     0.153429     0.296691    Uiso  ? C
   H276       1.0     0.518212     0.151302     0.318591    Uiso  ? H
   C456       1.0     0.495183     0.202245     0.303494    Uiso  ? C
   C457       1.0     0.471977     0.727874     0.649495    Uiso  ? C
   C458       1.0     0.447315     0.711724     0.637143    Uiso  ? C
   C459       1.0     0.443978     0.682166     0.644907    Uiso  ? C
   H277       1.0     0.457031     0.674147     0.660572    Uiso  ? H
   C460       1.0     0.420846     0.665946     0.633588    Uiso  ? C
   H278       1.0     0.418162     0.643031     0.639862    Uiso  ? H
   C461       1.0     0.400335     0.678820     0.615280    Uiso  ? C
   H279       1.0     0.381364     0.667877     0.603837    Uiso  ? H
   C462       1.0     0.403480     0.708892     0.607766    Uiso  ? C
   C463       1.0     0.425799     0.726518     0.620371    Uiso  ? C
   H280       1.0     0.427769     0.750204     0.613073    Uiso  ? H
   C464       1.0     0.387892     0.721141     0.582103    Uiso  ? C
   C465       1.0     0.570616     0.783536     0.669744    Uiso  ? C
   C466       1.0     0.599620     0.799961     0.675529    Uiso  ? C
   C467       1.0     0.623177     0.784805     0.689545    Uiso  ? C
   H281       1.0     0.622236     0.761630     0.695057    Uiso  ? H
   C468       1.0     0.648493     0.799815     0.696894    Uiso  ? C
   H282       1.0     0.666793     0.788295     0.705778    Uiso  ? H
   C469       1.0     0.652736     0.827867     0.686813    Uiso  ? C
   H283       1.0     0.674225     0.838430     0.690454    Uiso  ? H
   C470       1.0     0.630766     0.843951     0.672954    Uiso  ? C
   C471       1.0     0.602496     0.830306     0.668739    Uiso  ? C
   H284       1.0     0.586124     0.841632     0.656785    Uiso  ? H
   C472       1.0     0.635962     0.873864     0.663461    Uiso  ? C
   C473       1.0     0.659412     0.178769     0.612878    Uiso  ? C
   C474       1.0     0.662413     0.209631     0.602061    Uiso  ? C
   C475       1.0     0.680325     0.230271     0.615431    Uiso  ? C
   H285       1.0     0.696931     0.222769     0.630729    Uiso  ? H
   C476       1.0     0.681192     0.258749     0.605357    Uiso  ? C
   H286       1.0     0.698298     0.273645     0.611795    Uiso  ? H
   C477       1.0     0.666060     0.266831     0.580205    Uiso  ? C
   H287       1.0     0.664821     0.289635     0.572533    Uiso  ? H
   C478       1.0     0.647316     0.247382     0.566534    Uiso  ? C
   C479       1.0     0.644466     0.218275     0.579375    Uiso  ? C
   H288       1.0     0.627886     0.204355     0.570974    Uiso  ? H
   C480       1.0     0.634964     0.254962     0.536268    Uiso  ? C
   O217       1.0     0.671600     0.831313     0.448383    Uiso  ? O
   O218       1.0     0.719005     0.825973     0.454043    Uiso  ? O
   O219       1.0     0.670672     0.857356     0.419101    Uiso  ? O
   O220       1.0     0.712901     0.875113     0.404801    Uiso  ? O
   O221       1.0     0.680065     0.119368     0.448407    Uiso  ? O
   O222       1.0     0.719420     0.113281     0.421755    Uiso  ? O
   O223       1.0     0.698931     0.868410     0.501960    Uiso  ? O
   O224       1.0     0.738134     0.888519     0.483573    Uiso  ? O
   O225       1.0     0.519537     0.718577     0.474358    Uiso  ? O
   O226       1.0     0.538860     0.678001     0.489210    Uiso  ? O
   O227       1.0     0.573564     0.747201     0.436502    Uiso  ? O
   O228       1.0     0.567141     0.700189     0.426461    Uiso  ? O
   O229       1.0     0.602389     0.749108     0.462196    Uiso  ? O
   O230       1.0     0.616890     0.705245     0.476371    Uiso  ? O
   O231       1.0     0.573383     0.727660     0.518660    Uiso  ? O
   O232       1.0     0.599080     0.689822     0.508777    Uiso  ? O
   O233       1.0     0.503951     0.843086     0.334771    Uiso  ? O
   O234       1.0     0.518448     0.813829     0.300113    Uiso  ? O
   O235       1.0     0.552119     0.104040     0.315435    Uiso  ? O
   O236       1.0     0.530950     0.874152     0.279478    Uiso  ? O
   O237       1.0     0.588010     0.844292     0.348768    Uiso  ? O
   O238       1.0     0.596827     0.848057     0.301507    Uiso  ? O
   O239       1.0     0.563405     0.819144     0.352126    Uiso  ? O
   O240       1.0     0.548871     0.799184     0.309578    Uiso  ? O
   O241       1.0     0.472903     0.756317     0.643976    Uiso  ? O
   O242       1.0     0.493822     0.715291     0.660471    Uiso  ? O
   O243       1.0     0.541811     0.745269     0.615986    Uiso  ? O
   O244       1.0     0.561695     0.725588     0.655090    Uiso  ? O
   O245       1.0     0.549382     0.797435     0.656905    Uiso  ? O
   O246       1.0     0.567412     0.756915     0.678357    Uiso  ? O
   O247       1.0     0.515163     0.802966     0.668335    Uiso  ? O
   O248       1.0     0.509315     0.774203     0.705358    Uiso  ? O
   O249       1.0     0.616239     0.886375     0.649587    Uiso  ? O
   O250       1.0     0.660563     0.886010     0.668270    Uiso  ? O
   O251       1.0     0.672375     0.105466     0.602363    Uiso  ? O
   O252       1.0     0.699927     0.139213     0.624999    Uiso  ? O
   O253       1.0     0.635562     0.165294     0.609681    Uiso  ? O
   O254       1.0     0.678674     0.167906     0.629853    Uiso  ? O
   O255       1.0     0.608043     0.156774     0.632965    Uiso  ? O
   O256       1.0     0.635311     0.159132     0.673441    Uiso  ? O
   O257       1.0     0.344623     0.784917     0.527806    Uiso  ? O
   O258       1.0     0.326018     0.749818     0.553925    Uiso  ? O
   O259       1.0     0.384939     0.750512     0.489271    Uiso  ? O
   O260       1.0     0.345092     0.723832     0.488609    Uiso  ? O
   O261       1.0     0.410578     0.735743     0.510321    Uiso  ? O
   O262       1.0     0.388737     0.696514     0.530125    Uiso  ? O
   O263       1.0     0.392487     0.747051     0.574595    Uiso  ? O
   O264       1.0     0.374258     0.702482     0.565204    Uiso  ? O
   O265       1.0     0.627912     0.882311     0.479865    Uiso  ? O
   O266       1.0     0.541350     0.787173     0.486965    Uiso  ? O
   O267       1.0     0.534993     0.890592     0.379224    Uiso  ? O
   O268       1.0     0.490684     0.794176     0.600974    Uiso  ? O
   O269       1.0     0.607486     0.104493     0.583195    Uiso  ? O
   O270       1.0     0.407837     0.802934     0.538214    Uiso  ? O
   Zn49       1.0     0.670694     0.872400     0.464002    Uiso  ? Zn
   Zn50       1.0     0.734380     0.869227     0.444884    Uiso  ? Zn
   Zn51       1.0     0.557194     0.745404     0.479405    Uiso  ? Zn
   Zn52       1.0     0.577399     0.683212     0.468551    Uiso  ? Zn
   Zn53       1.0     0.545156     0.862520     0.344791    Uiso  ? Zn
   Zn54       1.0     0.555060     0.838550     0.286239    Uiso  ? Zn
   Zn55       1.0     0.513156     0.773471     0.634839    Uiso  ? Zn
   Zn56       1.0     0.528258     0.734670     0.685254    Uiso  ? Zn
   Zn57       1.0     0.631384     0.120693     0.616440    Uiso  ? Zn
   Zn58       1.0     0.672655     0.135209     0.662611    Uiso  ? Zn
   Zn59       1.0     0.384282     0.764268     0.533460    Uiso  ? Zn
   Zn60       1.0     0.344695     0.713083     0.533663    Uiso  ? Zn
   C481       1.0     0.300945     0.193838     0.522879    Uiso  ? C
   C482       1.0     0.304881     0.225927     0.516225    Uiso  ? C
   C483       1.0     0.280323     0.243669     0.516356    Uiso  ? C
   H289       1.0     0.257995     0.235709     0.518402    Uiso  ? H
   C484       1.0     0.285010     0.273097     0.515799    Uiso  ? C
   H290       1.0     0.265501     0.285034     0.514510    Uiso  ? H
   C485       1.0     0.313271     0.285656     0.514104    Uiso  ? C
   H291       1.0     0.316173     0.308683     0.514860    Uiso  ? H
   C486       1.0     0.338038     0.267903     0.511645    Uiso  ? C
   C487       1.0     0.333371     0.237371     0.514222    Uiso  ? C
   H292       1.0     0.350792     0.220727     0.512765    Uiso  ? H
   C488       1.0     0.367979     0.279100     0.514078    Uiso  ? C
   C489       1.0     0.319685     0.137033     0.593298    Uiso  ? C
   C490       1.0     0.330248     0.137570     0.623249    Uiso  ? C
   C491       1.0     0.314107     0.126893     0.645654    Uiso  ? C
   H293       1.0     0.292505     0.118265     0.640142    Uiso  ? H
   C492       1.0     0.325857     0.125514     0.673352    Uiso  ? C
   H294       1.0     0.312000     0.119704     0.691974    Uiso  ? H
   C493       1.0     0.353013     0.135924     0.679541    Uiso  ? C
   H295       1.0     0.360936     0.134546     0.701803    Uiso  ? H
   C494       1.0     0.370663     0.144509     0.655662    Uiso  ? C
   C495       1.0     0.358730     0.147785     0.627883    Uiso  ? C
   H296       1.0     0.372323     0.158741     0.611736    Uiso  ? H
   C496       1.0     0.401069     0.152889     0.662839    Uiso  ? C
   C497       1.0     0.292175     0.877912     0.555641    Uiso  ? C
   C498       1.0     0.287696     0.846635     0.562088    Uiso  ? C
   C499       1.0     0.261452     0.837037     0.574385    Uiso  ? C
   H297       1.0     0.247065     0.854016     0.583309    Uiso  ? H
   C500       1.0     0.256137     0.807371     0.579015    Uiso  ? C
   H298       1.0     0.234975     0.799859     0.586600    Uiso  ? H
   C501       1.0     0.278056     0.787662     0.569286    Uiso  ? C
   H299       1.0     0.275853     0.764674     0.574149    Uiso  ? H
   C502       1.0     0.304278     0.797042     0.555999    Uiso  ? C
   C503       1.0     0.309120     0.827356     0.552721    Uiso  ? C
   H300       1.0     0.326717     0.835513     0.539349    Uiso  ? H
   C504       1.0     0.323876     0.775192     0.544390    Uiso  ? C
   C505       1.0     0.280177     0.112773     0.495559    Uiso  ? C
   C506       1.0     0.269067     0.895292     0.467677    Uiso  ? C
   C507       1.0     0.239989     0.889579     0.461573    Uiso  ? C
   H301       1.0     0.221474     0.896045     0.475738    Uiso  ? H
   C508       1.0     0.232164     0.873728     0.435970    Uiso  ? C
   H302       1.0     0.209177     0.870356     0.432606    Uiso  ? H
   C509       1.0     0.252210     0.867877     0.414627    Uiso  ? C
   H303       1.0     0.244167     0.856211     0.395601    Uiso  ? H
   C510       1.0     0.281208     0.877430     0.418427    Uiso  ? C
   C511       1.0     0.290196     0.888565     0.445725    Uiso  ? C
   H304       1.0     0.312773     0.896545     0.449060    Uiso  ? H
   C512       1.0     0.302599     0.870160     0.396448    Uiso  ? C
   C513       1.0     0.472202     0.314223     0.506091    Uiso  ? C
   C514       1.0     0.499878     0.324979     0.494504    Uiso  ? C
   C515       1.0     0.504100     0.355335     0.490252    Uiso  ? C
   H305       1.0     0.485762     0.370017     0.496266    Uiso  ? H
   C516       1.0     0.530334     0.366461     0.480053    Uiso  ? C
   H306       1.0     0.532444     0.390128     0.474928    Uiso  ? H
   C517       1.0     0.554554     0.348012     0.475958    Uiso  ? C
   H307       1.0     0.574916     0.358626     0.469605    Uiso  ? H
   C518       1.0     0.550623     0.318060     0.480756    Uiso  ? C
   C519       1.0     0.523894     0.307156     0.490071    Uiso  ? C
   H308       1.0     0.521520     0.283249     0.494154    Uiso  ? H
   C520       1.0     0.575650     0.298414     0.480503    Uiso  ? C
   C521       1.0     0.434982     0.279432     0.578764    Uiso  ? C
   C522       1.0     0.442525     0.273531     0.609292    Uiso  ? C
   C523       1.0     0.450831     0.296966     0.627270    Uiso  ? C
   H309       1.0     0.449359     0.320102     0.619207    Uiso  ? H
   C524       1.0     0.459647     0.290670     0.655269    Uiso  ? C
   H310       1.0     0.467537     0.307897     0.668538    Uiso  ? H
   C525       1.0     0.460169     0.262878     0.665900    Uiso  ? C
   H311       1.0     0.466461     0.260133     0.689460    Uiso  ? H
   C526       1.0     0.447941     0.240664     0.649591    Uiso  ? C
   C527       1.0     0.439505     0.246526     0.620821    Uiso  ? C
   H312       1.0     0.429448     0.228120     0.606067    Uiso  ? H
   C528       1.0     0.449931     0.210378     0.662113    Uiso  ? C
   C529       1.0     0.413954     0.307119     0.469188    Uiso  ? C
   C530       1.0     0.413600     0.313987     0.437535    Uiso  ? C
   C531       1.0     0.403869     0.341546     0.426937    Uiso  ? C
   H313       1.0     0.391718     0.356649     0.441768    Uiso  ? H
   C532       1.0     0.404686     0.347058     0.396411    Uiso  ? C
   H314       1.0     0.395734     0.367058     0.386496    Uiso  ? H
   C533       1.0     0.417529     0.325429     0.377628    Uiso  ? C
   H315       1.0     0.418431     0.329004     0.354837    Uiso  ? H
   C534       1.0     0.424557     0.297840     0.388726    Uiso  ? C
   C535       1.0     0.423211     0.293027     0.418726    Uiso  ? C
   H316       1.0     0.427448     0.271887     0.427112    Uiso  ? H
   C536       1.0     0.439073     0.275984     0.369268    Uiso  ? C
   C537       1.0     0.507736     0.178935     0.680192    Uiso  ? C
   C538       1.0     0.537329     0.190121     0.683915    Uiso  ? C
   C539       1.0     0.543387     0.211933     0.705909    Uiso  ? C
   H317       1.0     0.527070     0.221088     0.719925    Uiso  ? H
   C540       1.0     0.572184     0.216268     0.712624    Uiso  ? C
   H318       1.0     0.578318     0.229138     0.732692    Uiso  ? H
   C541       1.0     0.595080     0.202861     0.697510    Uiso  ? C
   H319       1.0     0.617143     0.205015     0.705468    Uiso  ? H
   C542       1.0     0.589585     0.183814     0.673799    Uiso  ? C
   C543       1.0     0.561361     0.177563     0.667875    Uiso  ? C
   H320       1.0     0.557017     0.161302     0.652085    Uiso  ? H
   C544       1.0     0.612273     0.166156     0.659303    Uiso  ? C
   C545       1.0     0.466891     0.106692     0.705797    Uiso  ? C
   C546       1.0     0.477369     0.873464     0.718968    Uiso  ? C
   C547       1.0     0.485578     0.873263     0.749066    Uiso  ? C
   H321       1.0     0.479350     0.892311     0.762663    Uiso  ? H
   C548       1.0     0.498007     0.848860     0.761089    Uiso  ? C
   H322       1.0     0.501983     0.848450     0.785500    Uiso  ? H
   C549       1.0     0.507375     0.824958     0.742829    Uiso  ? C
   H323       1.0     0.519275     0.805810     0.752174    Uiso  ? H
   C550       1.0     0.499876     0.824320     0.712836    Uiso  ? C
   C551       1.0     0.485087     0.849330     0.700043    Uiso  ? C
   H324       1.0     0.481254     0.850003     0.676841    Uiso  ? H
   C552       1.0     0.508871     0.799378     0.694996    Uiso  ? C
   C553       1.0     0.524416     0.251304     0.352524    Uiso  ? C
   C554       1.0     0.553763     0.263022     0.361318    Uiso  ? C
   C555       1.0     0.567447     0.283835     0.343754    Uiso  ? C
   H325       1.0     0.556698     0.291773     0.322395    Uiso  ? H
   C556       1.0     0.593518     0.296471     0.352751    Uiso  ? C
   H326       1.0     0.604676     0.310685     0.338897    Uiso  ? H
   C557       1.0     0.606805     0.290393     0.379477    Uiso  ? C
   H327       1.0     0.626837     0.300742     0.385055    Uiso  ? H
   C558       1.0     0.591293     0.271664     0.398641    Uiso  ? C
   C559       1.0     0.565945     0.257231     0.389071    Uiso  ? C
   H328       1.0     0.554824     0.241051     0.404764    Uiso  ? H
   C560       1.0     0.604053     0.265674     0.427776    Uiso  ? C
   C561       1.0     0.433489     0.196646     0.326639    Uiso  ? C
   C562       1.0     0.411698     0.175406     0.313865    Uiso  ? C
   C563       1.0     0.399377     0.178155     0.285641    Uiso  ? C
   H329       1.0     0.405013     0.195853     0.271946    Uiso  ? H
   C564       1.0     0.377551     0.159699     0.275021    Uiso  ? C
   H330       1.0     0.369755     0.161335     0.253791    Uiso  ? H
   C565       1.0     0.368167     0.137242     0.293105    Uiso  ? C
   H331       1.0     0.351788     0.122042     0.286082    Uiso  ? H
   C566       1.0     0.380375     0.132944     0.321332    Uiso  ? C
   C567       1.0     0.402517     0.151932     0.331118    Uiso  ? C
   H332       1.0     0.411084     0.149356     0.353448    Uiso  ? H
   C568       1.0     0.372371     0.106498     0.338669    Uiso  ? C
   C569       1.0     0.355522     0.805004     0.393371    Uiso  ? C
   C570       1.0     0.353404     0.774867     0.404668    Uiso  ? C
   C571       1.0     0.343548     0.751331     0.386966    Uiso  ? C
   H333       1.0     0.338289     0.754825     0.365005    Uiso  ? H
   C572       1.0     0.346232     0.722109     0.397287    Uiso  ? C
   H334       1.0     0.342039     0.705129     0.382471    Uiso  ? H
   C573       1.0     0.355850     0.717584     0.426367    Uiso  ? C
   H335       1.0     0.358302     0.694518     0.435360    Uiso  ? H
   C574       1.0     0.362253     0.740407     0.444216    Uiso  ? C
   C575       1.0     0.361930     0.769654     0.433635    Uiso  ? C
   H336       1.0     0.368243     0.787212     0.447151    Uiso  ? H
   C576       1.0     0.366308     0.735736     0.475439    Uiso  ? C
   O271       1.0     0.317163     0.175497     0.510009    Uiso  ? O
   O272       1.0     0.283341     0.185720     0.543042    Uiso  ? O
   O273       1.0     0.337355     0.140205     0.572380    Uiso  ? O
   O274       1.0     0.292688     0.131266     0.588091    Uiso  ? O
   O275       1.0     0.308117     0.885873     0.535087    Uiso  ? O
   O276       1.0     0.280030     0.103086     0.570983    Uiso  ? O
   O277       1.0     0.306741     0.107413     0.504523    Uiso  ? O
   O278       1.0     0.262199     0.126482     0.510544    Uiso  ? O
   O279       1.0     0.470112     0.287183     0.510249    Uiso  ? O
   O280       1.0     0.448924     0.330733     0.506998    Uiso  ? O
   O281       1.0     0.427802     0.258598     0.561723    Uiso  ? O
   O282       1.0     0.433535     0.305232     0.568570    Uiso  ? O
   O283       1.0     0.389180     0.263276     0.505349    Uiso  ? O
   O284       1.0     0.372720     0.302802     0.526561    Uiso  ? O
   O285       1.0     0.411491     0.280210     0.478341    Uiso  ? O
   O286       1.0     0.420831     0.328344     0.486738    Uiso  ? O
   O287       1.0     0.501232     0.162816     0.658801    Uiso  ? O
   O288       1.0     0.488603     0.185080     0.699811    Uiso  ? O
   O289       1.0     0.458896     0.107369     0.679257    Uiso  ? O
   O290       1.0     0.470765     0.130317     0.718396    Uiso  ? O
   O291       1.0     0.419654     0.159786     0.642061    Uiso  ? O
   O292       1.0     0.410045     0.151987     0.688512    Uiso  ? O
   O293       1.0     0.445083     0.188485     0.645778    Uiso  ? O
   O294       1.0     0.457216     0.206401     0.688975    Uiso  ? O
   O295       1.0     0.518430     0.224434     0.357514    Uiso  ? O
   O296       1.0     0.506277     0.267969     0.340788    Uiso  ? O
   O297       1.0     0.457433     0.258181     0.381034    Uiso  ? O
   O298       1.0     0.434452     0.274577     0.342465    Uiso  ? O
   O299       1.0     0.447341     0.188612     0.349272    Uiso  ? O
   O300       1.0     0.440446     0.220310     0.312887    Uiso  ? O
   O301       1.0     0.499920     0.202313     0.331563    Uiso  ? O
   O302       1.0     0.476876     0.220404     0.292837    Uiso  ? O
   O303       1.0     0.389447     0.888825     0.355212    Uiso  ? O
   O304       1.0     0.346197     0.889210     0.333789    Uiso  ? O
   O305       1.0     0.327276     0.879365     0.398713    Uiso  ? O
   O306       1.0     0.297246     0.849762     0.378383    Uiso  ? O
   O307       1.0     0.371246     0.824473     0.406704    Uiso  ? O
   O308       1.0     0.340484     0.811396     0.370873    Uiso  ? O
   O309       1.0     0.393845     0.851370     0.351495    Uiso  ? O
   O310       1.0     0.363391     0.816533     0.336252    Uiso  ? O
   O311       1.0     0.638879     0.218424     0.463984    Uiso  ? O
   O312       1.0     0.659908     0.256353     0.447064    Uiso  ? O
   O313       1.0     0.609207     0.247884     0.529210    Uiso  ? O
   O314       1.0     0.651937     0.267421     0.518044    Uiso  ? O
   O315       1.0     0.572634     0.270845     0.478302    Uiso  ? O
   O316       1.0     0.600679     0.308945     0.481805    Uiso  ? O
   O317       1.0     0.587563     0.254270     0.447703    Uiso  ? O
   O318       1.0     0.628748     0.277244     0.434980    Uiso  ? O
   O319       1.0     0.375743     0.136359     0.529208    Uiso  ? O
   O320       1.0     0.448717     0.224038     0.515770    Uiso  ? O
   O321       1.0     0.475393     0.125763     0.610402    Uiso  ? O
   O322       1.0     0.481820     0.201630     0.410982    Uiso  ? O
   O323       1.0     0.393683     0.891330     0.419342    Uiso  ? O
   O324       1.0     0.578917     0.197102     0.494997    Uiso  ? O
   Zn61       1.0     0.328106     0.135743     0.529354    Uiso  ? Zn
   Zn62       1.0     0.269371     0.144013     0.550564    Uiso  ? Zn
   Zn63       1.0     0.431829     0.264641     0.518655    Uiso  ? Zn
   Zn64       1.0     0.412685     0.322856     0.533953    Uiso  ? Zn
   Zn65       1.0     0.460717     0.144341     0.649646    Uiso  ? Zn
   Zn66       1.0     0.446201     0.167060     0.709923    Uiso  ? Zn
   Zn67       1.0     0.473204     0.217323     0.368414    Uiso  ? Zn
   Zn68       1.0     0.467341     0.257486     0.318432    Uiso  ? Zn
   Zn69       1.0     0.369027     0.865388     0.391008    Uiso  ? Zn
   Zn70       1.0     0.327632     0.847163     0.344138    Uiso  ? Zn
   Zn71       1.0     0.602230     0.234329     0.487397    Uiso  ? Zn
   Zn72       1.0     0.641343     0.288240     0.479562    Uiso  ? Zn
   H337       1.0     0.461695     0.218072     0.500114    Uiso  ? H
   H338       1.0     0.441713     0.207897     0.527681    Uiso  ? H
   H339       1.0     0.522796     0.790352     0.478422    Uiso  ? H
   H340       1.0     0.555370     0.802357     0.488404    Uiso  ? H
   H341       1.0     0.427365     0.804823     0.533597    Uiso  ? H
   H342       1.0     0.396966     0.819114     0.549317    Uiso  ? H
   H343       1.0     0.501014     0.810319     0.592158    Uiso  ? H
   H344       1.0     0.469826     0.793965     0.598746    Uiso  ? H
   H345       1.0     0.583337     0.186498     0.512931    Uiso  ? H
   H346       1.0     0.565021     0.189304     0.479605    Uiso  ? H
   H347       1.0     0.625774     0.104594     0.492602    Uiso  ? H
   H348       1.0     0.611157     0.871826     0.474240    Uiso  ? H
   H349       1.0     0.612061     0.879306     0.580068    Uiso  ? H
   H350       1.0     0.589489     0.110460     0.573368    Uiso  ? H
   H351       1.0     0.484150     0.213925     0.428911    Uiso  ? H
   H352       1.0     0.470210     0.183191     0.410685    Uiso  ? H
   H353       1.0     0.538389     0.115933     0.375856    Uiso  ? H
   H354       1.0     0.535768     0.884837     0.399534    Uiso  ? H
   H355       1.0     0.409139     0.884368     0.430381    Uiso  ? H
   H356       1.0     0.388870     0.117395     0.421183    Uiso  ? H
   H357       1.0     0.461423     0.119850     0.595936    Uiso  ? H
   H358       1.0     0.496585     0.120759     0.610637    Uiso  ? H
   H359       1.0     0.384009     0.137393     0.509743    Uiso  ? H
   H360       1.0     0.387145     0.132060     0.545279    Uiso  ? H
   C577       1.0     0.395904     0.433168     0.261896    Uiso  ? C
   C578       1.0     0.421611     0.420171     0.277659    Uiso  ? C
   C579       1.0     0.415708     0.400567     0.300699    Uiso  ? C
   H361       1.0     0.393133     0.392404     0.303260    Uiso  ? H
   C580       1.0     0.438719     0.391115     0.320061    Uiso  ? C
   H362       1.0     0.435295     0.377767     0.340165    Uiso  ? H
   C581       1.0     0.466334     0.399615     0.313522    Uiso  ? C
   H363       1.0     0.482388     0.393631     0.329257    Uiso  ? H
   C582       1.0     0.474218     0.416175     0.288709    Uiso  ? C
   C583       1.0     0.451881     0.426352     0.270677    Uiso  ? C
   H364       1.0     0.455345     0.442148     0.253416    Uiso  ? H
   C584       1.0     0.503879     0.425194     0.283889    Uiso  ? C
   C585       1.0     0.370268     0.497356     0.266213    Uiso  ? C
   C586       1.0     0.378152     0.522241     0.285309    Uiso  ? C
   C587       1.0     0.372329     0.521136     0.315606    Uiso  ? C
   H365       1.0     0.356549     0.504888     0.324680    Uiso  ? H
   C588       1.0     0.384620     0.541544     0.334832    Uiso  ? C
   H366       1.0     0.379281     0.540352     0.357656    Uiso  ? H
   C589       1.0     0.400927     0.564586     0.322933    Uiso  ? C
   H367       1.0     0.407252     0.582974     0.336088    Uiso  ? H
   C590       1.0     0.407088     0.566421     0.292743    Uiso  ? C
   C591       1.0     0.398016     0.543307     0.274110    Uiso  ? C
   H368       1.0     0.404105     0.544252     0.250727    Uiso  ? H
   C592       1.0     0.425295     0.590880     0.281179    Uiso  ? C
   C593       1.0     0.306805     0.480796     0.208751    Uiso  ? C
   C594       1.0     0.284968     0.491536     0.188208    Uiso  ? C
   C595       1.0     0.255108     0.483761     0.190538    Uiso  ? C
   H369       1.0     0.246672     0.471296     0.209227    Uiso  ? H
   C596       1.0     0.234669     0.492353     0.170348    Uiso  ? C
   H370       1.0     0.211575     0.488053     0.172630    Uiso  ? H
   C597       1.0     0.244169     0.505884     0.143958    Uiso  ? C
   H371       1.0     0.228388     0.508301     0.128142    Uiso  ? H
   C598       1.0     0.273094     0.514678     0.139607    Uiso  ? C
   C599       1.0     0.293393     0.509354     0.162929    Uiso  ? C
   H372       1.0     0.315582     0.514429     0.158220    Uiso  ? H
   C600       1.0     0.281391     0.526487     0.110649    Uiso  ? C
   C601       1.0     0.359770     0.401910     0.211485    Uiso  ? C
   C602       1.0     0.359982     0.371976     0.197627    Uiso  ? C
   C603       1.0     0.352013     0.346512     0.212123    Uiso  ? C
   H373       1.0     0.345734     0.345640     0.234698    Uiso  ? H
   C604       1.0     0.350925     0.320035     0.196224    Uiso  ? C
   H374       1.0     0.343457     0.300849     0.206220    Uiso  ? H
   C605       1.0     0.355913     0.319146     0.166142    Uiso  ? C
   H375       1.0     0.352607     0.298816     0.152939    Uiso  ? H
   C606       1.0     0.366217     0.343684     0.152282    Uiso  ? C
   C607       1.0     0.371072     0.369156     0.169081    Uiso  ? C
   H376       1.0     0.377079     0.390006     0.158778    Uiso  ? H
   C608       1.0     0.368315     0.344310     0.119942    Uiso  ? C
   C609       1.0     0.612125     0.451488     0.263603    Uiso  ? C
   C610       1.0     0.642476     0.458134     0.255814    Uiso  ? C
   C611       1.0     0.664981     0.459640     0.276908    Uiso  ? C
   H377       1.0     0.660006     0.459337     0.299690    Uiso  ? H
   C612       1.0     0.693419     0.463809     0.268163    Uiso  ? C
   H378       1.0     0.709678     0.470119     0.283236    Uiso  ? H
   C613       1.0     0.699962     0.466439     0.237718    Uiso  ? C
   H379       1.0     0.721849     0.473838     0.232064    Uiso  ? H
   C614       1.0     0.679108     0.462949     0.215853    Uiso  ? C
   C615       1.0     0.650480     0.458193     0.225654    Uiso  ? C
   H380       1.0     0.634101     0.453192     0.209727    Uiso  ? H
   C616       1.0     0.685846     0.460791     0.184480    Uiso  ? C
   C617       1.0     0.534198     0.487847     0.309982    Uiso  ? C
   C618       1.0     0.521156     0.514049     0.325123    Uiso  ? C
   C619       1.0     0.512687     0.513416     0.353670    Uiso  ? C
   H381       1.0     0.513134     0.493676     0.366057    Uiso  ? H
   C620       1.0     0.501682     0.537969     0.367510    Uiso  ? C
   H382       1.0     0.497758     0.538539     0.391290    Uiso  ? H
   C621       1.0     0.495495     0.563044     0.350582    Uiso  ? C
   H383       1.0     0.484622     0.580959     0.359220    Uiso  ? H
   C622       1.0     0.503818     0.564608     0.321015    Uiso  ? C
   C623       1.0     0.519282     0.540566     0.308519    Uiso  ? C
   H384       1.0     0.523366     0.540634     0.285789    Uiso  ? H
   C624       1.0     0.494257     0.588229     0.301509    Uiso  ? C
   C625       1.0     0.554324     0.388449     0.264512    Uiso  ? C
   C626       1.0     0.551961     0.360045     0.250950    Uiso  ? C
   C627       1.0     0.545257     0.335881     0.268984    Uiso  ? C
   H385       1.0     0.542514     0.341391     0.291850    Uiso  ? H
   C628       1.0     0.544335     0.307820     0.257414    Uiso  ? C
   H386       1.0     0.540669     0.288008     0.271459    Uiso  ? H
   C629       1.0     0.544993     0.304461     0.228240    Uiso  ? C
   H387       1.0     0.538952     0.282494     0.221750    Uiso  ? H
   C630       1.0     0.552053     0.328200     0.209505    Uiso  ? C
   C631       1.0     0.553403     0.355974     0.221129    Uiso  ? C
   H388       1.0     0.556137     0.376092     0.209747    Uiso  ? H
   C632       1.0     0.553593     0.323171     0.177546    Uiso  ? C
   C633       1.0     0.512560     0.656800     0.244912    Uiso  ? C
   C634       1.0     0.537668     0.673188     0.235595    Uiso  ? C
   C635       1.0     0.547766     0.697062     0.251553    Uiso  ? C
   H389       1.0     0.533490     0.704638     0.269878    Uiso  ? H
   C636       1.0     0.573337     0.710846     0.244189    Uiso  ? C
   H390       1.0     0.580614     0.727280     0.258013    Uiso  ? H
   C637       1.0     0.590494     0.700071     0.222320    Uiso  ? C
   H391       1.0     0.611618     0.709139     0.217956    Uiso  ? H
   C638       1.0     0.580223     0.678521     0.203200    Uiso  ? C
   C639       1.0     0.553191     0.664754     0.210723    Uiso  ? C
   H392       1.0     0.544746     0.646342     0.199295    Uiso  ? H
   C640       1.0     0.597242     0.666049     0.179055    Uiso  ? C
   C641       1.0     0.440748     0.657588     0.230260    Uiso  ? C
   C642       1.0     0.423565     0.675212     0.209336    Uiso  ? C
   C643       1.0     0.398475     0.691187     0.218249    Uiso  ? C
   H393       1.0     0.392179     0.693725     0.241066    Uiso  ? H
   C644       1.0     0.379586     0.704655     0.198507    Uiso  ? C
   H394       1.0     0.358899     0.716902     0.206661    Uiso  ? H
   C645       1.0     0.388001     0.704636     0.169808    Uiso  ? C
   H395       1.0     0.375557     0.715601     0.153893    Uiso  ? H
   C646       1.0     0.412268     0.688923     0.159875    Uiso  ? C
   C647       1.0     0.429475     0.673443     0.179302    Uiso  ? C
   H396       1.0     0.447583     0.660714     0.173054    Uiso  ? H
   C648       1.0     0.419907     0.688444     0.128697    Uiso  ? C
   C649       1.0     0.615302     0.327202     0.108789    Uiso  ? C
   C650       1.0     0.644970     0.338340     0.100000    Uiso  ? C
   C651       1.0     0.667232     0.316698     0.892254    Uiso  ? C
   H397       1.0     0.662201     0.293551     0.888963    Uiso  ? H
   C652       1.0     0.697009     0.325815     0.890677    Uiso  ? C
   H398       1.0     0.715007     0.312640     0.883942    Uiso  ? H
   C653       1.0     0.702960     0.353994     0.897572    Uiso  ? C
   H399       1.0     0.724603     0.361360     0.894499    Uiso  ? H
   C654       1.0     0.681670     0.376038     0.104313    Uiso  ? C
   C655       1.0     0.651810     0.367842     0.103237    Uiso  ? C
   H400       1.0     0.634123     0.384266     0.107152    Uiso  ? H
   C656       1.0     0.689117     0.406835     0.111600    Uiso  ? C
   C657       1.0     0.511525     0.286872     0.101810    Uiso  ? C
   C658       1.0     0.483777     0.275180     0.889539    Uiso  ? C
   C659       1.0     0.480269     0.246851     0.878694    Uiso  ? C
   H401       1.0     0.498786     0.231540     0.878395    Uiso  ? H
   C660       1.0     0.454633     0.238469     0.864676    Uiso  ? C
   H402       1.0     0.452862     0.216366     0.853088    Uiso  ? H
   C661       1.0     0.431333     0.257652     0.863737    Uiso  ? C
   H403       1.0     0.414282     0.251937     0.849793    Uiso  ? H
   C662       1.0     0.432381     0.285470     0.877115    Uiso  ? C
   C663       1.0     0.460077     0.294256     0.888799    Uiso  ? C
   H404       1.0     0.461809     0.315459     0.899011    Uiso  ? H
   C664       1.0     0.408855     0.306765     0.875894    Uiso  ? C
   C665       1.0     0.327163     0.377315     0.844846    Uiso  ? C
   C666       1.0     0.306944     0.399711     0.834964    Uiso  ? C
   C667       1.0     0.281749     0.390796     0.820049    Uiso  ? C
   H405       1.0     0.279011     0.368881     0.812844    Uiso  ? H
   C668       1.0     0.261974     0.411187     0.810374    Uiso  ? C
   H406       1.0     0.241481     0.401567     0.800571    Uiso  ? H
   C669       1.0     0.267307     0.441604     0.813233    Uiso  ? C
   H407       1.0     0.251192     0.457474     0.803036    Uiso  ? H
   C670       1.0     0.291496     0.450759     0.831811    Uiso  ? C
   C671       1.0     0.311670     0.429516     0.839952    Uiso  ? C
   H408       1.0     0.330168     0.435557     0.850832    Uiso  ? H
   C672       1.0     0.294621     0.480868     0.840612    Uiso  ? C
   O325       1.0     0.399479     0.453414     0.242520    Uiso  ? O
   O326       1.0     0.370641     0.420787     0.263287    Uiso  ? O
   O327       1.0     0.387743     0.486520     0.248581    Uiso  ? O
   O328       1.0     0.346173     0.483082     0.271609    Uiso  ? O
   O329       1.0     0.332068     0.493274     0.209843    Uiso  ? O
   O330       1.0     0.304699     0.456251     0.221385    Uiso  ? O
   O331       1.0     0.364286     0.423465     0.196174    Uiso  ? O
   O332       1.0     0.351535     0.405238     0.236864    Uiso  ? O
   O333       1.0     0.592983     0.451523     0.244086    Uiso  ? O
   O334       1.0     0.605215     0.446736     0.290105    Uiso  ? O
   O335       1.0     0.542053     0.490304     0.283429    Uiso  ? O
   O336       1.0     0.536130     0.463135     0.322786    Uiso  ? O
   O337       1.0     0.513405     0.427413     0.257235    Uiso  ? O
   O338       1.0     0.520739     0.429724     0.305553    Uiso  ? O
   O339       1.0     0.548190     0.411263     0.247941    Uiso  ? O
   O340       1.0     0.560280     0.391853     0.292029    Uiso  ? O
   O341       1.0     0.498085     0.640115     0.228581    Uiso  ? O
   O342       1.0     0.504901     0.656143     0.272468    Uiso  ? O
   O343       1.0     0.461405     0.640506     0.220343    Uiso  ? O
   O344       1.0     0.434511     0.659458     0.257277    Uiso  ? O
   O345       1.0     0.431903     0.592232     0.254892    Uiso  ? O
   O346       1.0     0.439597     0.606346     0.299851    Uiso  ? O
   O347       1.0     0.503329     0.589161     0.275023    Uiso  ? O
   O348       1.0     0.473866     0.605929     0.310367    Uiso  ? O
   O349       1.0     0.593025     0.342917     0.104022    Uiso  ? O
   O350       1.0     0.613913     0.302896     0.120399    Uiso  ? O
   O351       1.0     0.559714     0.344511     0.160100    Uiso  ? O
   O352       1.0     0.552431     0.298294     0.166522    Uiso  ? O
   O353       1.0     0.513464     0.312489     0.111369    Uiso  ? O
   O354       1.0     0.534436     0.272171     0.100054    Uiso  ? O
   O355       1.0     0.567325     0.332568     0.876810    Uiso  ? O
   O356       1.0     0.564481     0.283396     0.879635    Uiso  ? O
   O357       1.0     0.410936     0.333072     0.884324    Uiso  ? O
   O358       1.0     0.386769     0.299152     0.860203    Uiso  ? O
   O359       1.0     0.391272     0.353758     0.106946    Uiso  ? O
   O360       1.0     0.347628     0.332378     0.105245    Uiso  ? O
   O361       1.0     0.347134     0.383552     0.863182    Uiso  ? O
   O362       1.0     0.325778     0.351476     0.836201    Uiso  ? O
   O363       1.0     0.397389     0.346551     0.823359    Uiso  ? O
   O364       1.0     0.373430     0.305735     0.826489    Uiso  ? O
   O365       1.0     0.688818     0.489114     0.892003    Uiso  ? O
   O366       1.0     0.731836     0.466753     0.891472    Uiso  ? O
   O367       1.0     0.685359     0.507825     0.124302    Uiso  ? O
   O368       1.0     0.722039     0.490357     0.151118    Uiso  ? O
   O369       1.0     0.665621     0.457295     0.166801    Uiso  ? O
   O370       1.0     0.712755     0.464082     0.175323    Uiso  ? O
   O371       1.0     0.675634     0.426627     0.898476    Uiso  ? O
   O372       1.0     0.705636     0.412788     0.133576    Uiso  ? O
   O373       1.0     0.382838     0.490647     0.174128    Uiso  ? O
   O374       1.0     0.539212     0.481885     0.218913    Uiso  ? O
   O375       1.0     0.475109     0.565080     0.212440    Uiso  ? O
   O376       1.0     0.522418     0.377900     0.117309    Uiso  ? O
   O377       1.0     0.407817     0.406385     0.858231    Uiso  ? O
   O378       1.0     0.618783     0.465384     0.111742    Uiso  ? O
   Zn73       1.0     0.369283     0.466568     0.211328    Uiso  ? Zn
   Zn74       1.0     0.330155     0.443028     0.256128    Uiso  ? Zn
   Zn75       1.0     0.550186     0.457395     0.252603    Uiso  ? Zn
   Zn76       1.0     0.568642     0.430999     0.313918    Uiso  ? Zn
   Zn77       1.0     0.473790     0.601699     0.243016    Uiso  ? Zn
   Zn78       1.0     0.463530     0.645852     0.288611    Uiso  ? Zn
   Zn79       1.0     0.548489     0.340617     0.118011    Uiso  ? Zn
   Zn80       1.0     0.573081     0.282861     0.127459    Uiso  ? Zn
   Zn81       1.0     0.388320     0.366531     0.862595    Uiso  ? Zn
   Zn82       1.0     0.343513     0.318630     0.860164    Uiso  ? Zn
   Zn83       1.0     0.665291     0.464764     0.121634    Uiso  ? Zn
   Zn84       1.0     0.729363     0.449258     0.134355    Uiso  ? Zn
   C673       1.0     0.595073     0.578978     0.732888    Uiso  ? C
   C674       1.0     0.571666     0.597493     0.722218    Uiso  ? C
   C675       1.0     0.577264     0.620061     0.702659    Uiso  ? C
   H409       1.0     0.598244     0.626960     0.697267    Uiso  ? H
   C676       1.0     0.555056     0.630159     0.684502    Uiso  ? C
   H410       1.0     0.559823     0.643173     0.665922    Uiso  ? H
   C677       1.0     0.525770     0.621751     0.689034    Uiso  ? C
   H411       1.0     0.511090     0.631996     0.674068    Uiso  ? H
   C678       1.0     0.518365     0.601406     0.711187    Uiso  ? C
   C679       1.0     0.541765     0.589343     0.728706    Uiso  ? C
   H412       1.0     0.538122     0.570531     0.743139    Uiso  ? H
   C680       1.0     0.490420     0.588045     0.712790    Uiso  ? C
   C681       1.0     0.620679     0.496502     0.723681    Uiso  ? C
   C682       1.0     0.612843     0.470837     0.707180    Uiso  ? C
   C683       1.0     0.626704     0.465056     0.680312    Uiso  ? C
   H413       1.0     0.642124     0.480689     0.671299    Uiso  ? H
   C684       1.0     0.618467     0.440807     0.664022    Uiso  ? C
   H414       1.0     0.627794     0.437306     0.641786    Uiso  ? H
   C685       1.0     0.600111     0.419479     0.676173    Uiso  ? C
   H415       1.0     0.596038     0.401338     0.663732    Uiso  ? H
   C686       1.0     0.586757     0.424179     0.702653    Uiso  ? C
   C687       1.0     0.592645     0.449634     0.718844    Uiso  ? C
   H416       1.0     0.583383     0.453976     0.739698    Uiso  ? H
   C688       1.0     0.562606     0.402967     0.711327    Uiso  ? C
   C689       1.0     0.676636     0.529201     0.787614    Uiso  ? C
   C690       1.0     0.700320     0.517144     0.805131    Uiso  ? C
   C691       1.0     0.728016     0.513586     0.792300    Uiso  ? C
   H417       1.0     0.733760     0.519009     0.769765    Uiso  ? H
   C692       1.0     0.751482     0.501553     0.809197    Uiso  ? C
   H418       1.0     0.772595     0.498791     0.799243    Uiso  ? H
   C693       1.0     0.746227     0.494543     0.838349    Uiso  ? C
   H419       1.0     0.763224     0.483477     0.848585    Uiso  ? H
   C694       1.0     0.718433     0.495281     0.850859    Uiso  ? C
   C695       1.0     0.695509     0.507620     0.833862    Uiso  ? C
   H420       1.0     0.674422     0.510806     0.842933    Uiso  ? H
   C696       1.0     0.712696     0.483462     0.879723    Uiso  ? C
   C697       1.0     0.645285     0.592324     0.781842    Uiso  ? C
   C698       1.0     0.654249     0.617790     0.798236    Uiso  ? C
   C699       1.0     0.663734     0.643216     0.785618    Uiso  ? C
   H421       1.0     0.666817     0.643234     0.761908    Uiso  ? H
   C700       1.0     0.664859     0.670154     0.801326    Uiso  ? C
   H422       1.0     0.671227     0.691395     0.790130    Uiso  ? H
   C701       1.0     0.658442     0.671399     0.830398    Uiso  ? C
   H423       1.0     0.661078     0.692246     0.840370    Uiso  ? H
   C702       1.0     0.650323     0.645180     0.844528    Uiso  ? C
   C703       1.0     0.649897     0.617464     0.828919    Uiso  ? C
   H424       1.0     0.643162     0.598943     0.841278    Uiso  ? H
   C704       1.0     0.642417     0.645776     0.876716    Uiso  ? C
   C705       1.0     0.389741     0.549454     0.732687    Uiso  ? C
   C706       1.0     0.358484     0.544934     0.738250    Uiso  ? C
   C707       1.0     0.337754     0.540865     0.715267    Uiso  ? C
   H425       1.0     0.345391     0.539061     0.692910    Uiso  ? H
   C708       1.0     0.308148     0.536670     0.719947    Uiso  ? C
   H426       1.0     0.295586     0.532455     0.700864    Uiso  ? H
   C709       1.0     0.298067     0.534388     0.749363    Uiso  ? C
   H427       1.0     0.275222     0.526838     0.754201    Uiso  ? H
   C710       1.0     0.317455     0.541361     0.772298    Uiso  ? C
   C711       1.0     0.346927     0.546845     0.765517    Uiso  ? C
   H428       1.0     0.362183     0.551293     0.782905    Uiso  ? H
   C712       1.0     0.307993     0.542090     0.803886    Uiso  ? C
   C713       1.0     0.462263     0.511247     0.685463    Uiso  ? C
   C714       1.0     0.474069     0.484731     0.670231    Uiso  ? C
   C715       1.0     0.483951     0.487325     0.640766    Uiso  ? C
   H429       1.0     0.483659     0.507367     0.629264    Uiso  ? H
   C716       1.0     0.495216     0.462425     0.626610    Uiso  ? C
   H430       1.0     0.501197     0.461623     0.603841    Uiso  ? H
   C717       1.0     0.498847     0.435362     0.641380    Uiso  ? C
   H431       1.0     0.506952     0.419060     0.629740    Uiso  ? H
   C718       1.0     0.489426     0.433371     0.670792    Uiso  ? C
   C719       1.0     0.473589     0.457291     0.684042    Uiso  ? C
   H432       1.0     0.463395     0.454467     0.704762    Uiso  ? H
   C720       1.0     0.494360     0.405834     0.687831    Uiso  ? C
   C721       1.0     0.432010     0.607279     0.733882    Uiso  ? C
   C722       1.0     0.429084     0.636337     0.745225    Uiso  ? C
   C723       1.0     0.422189     0.659635     0.726134    Uiso  ? C
   H433       1.0     0.421255     0.657473     0.702622    Uiso  ? H
   C724       1.0     0.423318     0.688228     0.737225    Uiso  ? C
   H434       1.0     0.423469     0.707315     0.722144    Uiso  ? H
   C725       1.0     0.427813     0.694489     0.766522    Uiso  ? C
   H435       1.0     0.427297     0.717553     0.772674    Uiso  ? H
   C726       1.0     0.432100     0.671587     0.786450    Uiso  ? C
   C727       1.0     0.432176     0.642756     0.775410    Uiso  ? C
   H436       1.0     0.437380     0.624020     0.790398    Uiso  ? H
   C728       1.0     0.437057     0.677901     0.817397    Uiso  ? C
   C729       1.0     0.472279     0.338370     0.739743    Uiso  ? C
   C730       1.0     0.445048     0.322044     0.748490    Uiso  ? C
   C731       1.0     0.434008     0.298735     0.732836    Uiso  ? C
   H437       1.0     0.441182     0.295256     0.712220    Uiso  ? H
   C732       1.0     0.410353     0.283094     0.743196    Uiso  ? C
   H438       1.0     0.402419     0.262828     0.731938    Uiso  ? H
   C733       1.0     0.397348     0.289382     0.770313    Uiso  ? C
   H439       1.0     0.379634     0.273854     0.777817    Uiso  ? H
   C734       1.0     0.406040     0.313819     0.785083    Uiso  ? C
   C735       1.0     0.429610     0.329783     0.774222    Uiso  ? C
   H440       1.0     0.437280     0.349045     0.787614    Uiso  ? H
   C736       1.0     0.390198     0.322904     0.811949    Uiso  ? C
   C737       1.0     0.542804     0.337986     0.763316    Uiso  ? C
   C738       1.0     0.558266     0.317137     0.783143    Uiso  ? C
   C739       1.0     0.574617     0.292773     0.772978    Uiso  ? C
   H441       1.0     0.576905     0.289327     0.749752    Uiso  ? H
   C740       1.0     0.585414     0.272935     0.792796    Uiso  ? C
   H442       1.0     0.597584     0.254625     0.786026    Uiso  ? H
   C741       1.0     0.583304     0.277650     0.822916    Uiso  ? C
   H443       1.0     0.592821     0.262243     0.837413    Uiso  ? H
   C742       1.0     0.570459     0.303546     0.833449    Uiso  ? C
   C743       1.0     0.556467     0.322360     0.813368    Uiso  ? C
   H444       1.0     0.546368     0.341489     0.820951    Uiso  ? H
   C744       1.0     0.568013     0.307143     0.864407    Uiso  ? C
   C745       1.0     0.388588     0.670251     0.870107    Uiso  ? C
   C746       1.0     0.357850     0.660513     0.868068    Uiso  ? C
   C747       1.0     0.335780     0.680222     0.875394    Uiso  ? C
   H445       1.0     0.341602     0.702259     0.883837    Uiso  ? H
   C748       1.0     0.306309     0.671598     0.877111    Uiso  ? C
   H446       1.0     0.289744     0.685747     0.883807    Uiso  ? H
   C749       1.0     0.299294     0.642587     0.867886    Uiso  ? C
   H447       1.0     0.276949     0.636401     0.868880    Uiso  ? H
   C750       1.0     0.321105     0.621998     0.860413    Uiso  ? C
   C751       1.0     0.350358     0.631089     0.859395    Uiso  ? C
   H448       1.0     0.367431     0.615715     0.854654    Uiso  ? H
   C752       1.0     0.314326     0.590059     0.855713    Uiso  ? C
   C753       1.0     0.494089     0.705623     0.887242    Uiso  ? C
   C754       1.0     0.522999     0.718302     0.896864    Uiso  ? C
   C755       1.0     0.526493     0.748523     0.103389    Uiso  ? C
   H449       1.0     0.506526     0.762916     0.101798    Uiso  ? H
   C756       1.0     0.553726     0.759671     0.113170    Uiso  ? C
   H450       1.0     0.558493     0.783004     0.114332    Uiso  ? H
   C757       1.0     0.577436     0.740661     0.113773    Uiso  ? C
   H451       1.0     0.599609     0.749204     0.119867    Uiso  ? H
   C758       1.0     0.574514     0.711141     0.106737    Uiso  ? C
   C759       1.0     0.546327     0.700403     0.899015    Uiso  ? C
   H452       1.0     0.540465     0.677101     0.895469    Uiso  ? H
   C760       1.0     0.598331     0.689807     0.111613    Uiso  ? C
   C761       1.0     0.673692     0.615206     0.150278    Uiso  ? C
   C762       1.0     0.694775     0.592337     0.157548    Uiso  ? C
   C763       1.0     0.719012     0.599072     0.176242    Uiso  ? C
   H453       1.0     0.722185     0.621448     0.183853    Uiso  ? H
   C764       1.0     0.738208     0.575755     0.184849    Uiso  ? C
   H454       1.0     0.757337     0.581430     0.196242    Uiso  ? H
   C765       1.0     0.733192     0.547550     0.174742    Uiso  ? C
   H455       1.0     0.748302     0.530758     0.180562    Uiso  ? H
   C766       1.0     0.710549     0.541826     0.154156    Uiso  ? C
   C767       1.0     0.690030     0.564553     0.147108    Uiso  ? C
   H456       1.0     0.671801     0.559096     0.134267    Uiso  ? H
   C768       1.0     0.705839     0.511948     0.143246    Uiso  ? C
   O379       1.0     0.588244     0.558548     0.749770    Uiso  ? O
   O380       1.0     0.621712     0.585597     0.728879    Uiso  ? O
   O381       1.0     0.623033     0.494962     0.750724    Uiso  ? O
   O382       1.0     0.624092     0.520566     0.711323    Uiso  ? O
   O383       1.0     0.652489     0.537854     0.799802    Uiso  ? O
   O384       1.0     0.677748     0.530970     0.759984    Uiso  ? O
   O385       1.0     0.637696     0.569161     0.796373    Uiso  ? O
   O386       1.0     0.645319     0.590791     0.753532    Uiso  ? O
   O387       1.0     0.408975     0.550996     0.753131    Uiso  ? O
   O388       1.0     0.397649     0.552704     0.706081    Uiso  ? O
   O389       1.0     0.450759     0.508867     0.710263    Uiso  ? O
   O390       1.0     0.468452     0.536578     0.677149    Uiso  ? O
   O391       1.0     0.484851     0.569485     0.733334    Uiso  ? O
   O392       1.0     0.472458     0.591797     0.692275    Uiso  ? O
   O393       1.0     0.434434     0.584925     0.750043    Uiso  ? O
   O394       1.0     0.433882     0.604719     0.706221    Uiso  ? O
   O395       1.0     0.486504     0.351939     0.759604    Uiso  ? O
   O396       1.0     0.480127     0.338600     0.713681    Uiso  ? O
   O397       1.0     0.521381     0.353424     0.772912    Uiso  ? O
   O398       1.0     0.548214     0.336988     0.735841    Uiso  ? O
   O399       1.0     0.551201     0.405976     0.736289    Uiso  ? O
   O400       1.0     0.548568     0.388584     0.691792    Uiso  ? O
   O401       1.0     0.483311     0.402845     0.713292    Uiso  ? O
   O402       1.0     0.515482     0.389209     0.680818    Uiso  ? O
   O403       1.0     0.410337     0.652646     0.863128    Uiso  ? O
   O404       1.0     0.395096     0.695529     0.880625    Uiso  ? O
   O405       1.0     0.435994     0.656597     0.836096    Uiso  ? O
   O406       1.0     0.439326     0.703631     0.826864    Uiso  ? O
   O407       1.0     0.490007     0.679910     0.875506    Uiso  ? O
   O408       1.0     0.473150     0.723819     0.887445    Uiso  ? O
   O409       1.0     0.434439     0.666529     0.119317    Uiso  ? O
   O410       1.0     0.412685     0.708999     0.111143    Uiso  ? O
   O411       1.0     0.595178     0.663756     0.103192    Uiso  ? O
   O412       1.0     0.616215     0.696007     0.131726    Uiso  ? O
   O413       1.0     0.617781     0.635652     0.884975    Uiso  ? O
   O414       1.0     0.658947     0.658635     0.895121    Uiso  ? O
   O415       1.0     0.651626     0.608434     0.136069    Uiso  ? O
   O416       1.0     0.675636     0.640797     0.160981    Uiso  ? O
   O417       1.0     0.589360     0.644306     0.164282    Uiso  ? O
   O418       1.0     0.619768     0.681032     0.171420    Uiso  ? O
   O419       1.0     0.304678     0.542778     0.107032    Uiso  ? O
   O420       1.0     0.265095     0.518129     0.890048    Uiso  ? O
   O421       1.0     0.317702     0.490835     0.852684    Uiso  ? O
   O422       1.0     0.273566     0.497646     0.834646    Uiso  ? O
   O423       1.0     0.327813     0.543353     0.823600    Uiso  ? O
   O424       1.0     0.282061     0.534346     0.809957    Uiso  ? O
   O425       1.0     0.334575     0.571140     0.850155    Uiso  ? O
   O426       1.0     0.288499     0.580415     0.861785    Uiso  ? O
   O427       1.0     0.586075     0.514923     0.806832    Uiso  ? O
   O428       1.0     0.467127     0.521132     0.779986    Uiso  ? O
   O429       1.0     0.494711     0.425304     0.778992    Uiso  ? O
   O430       1.0     0.474604     0.616409     0.888347    Uiso  ? O
   O431       1.0     0.579692     0.593391     0.131560    Uiso  ? O
   O432       1.0     0.370862     0.525757     0.885637    Uiso  ? O
   Zn85       1.0     0.613573     0.532754     0.775884    Uiso  ? Zn
   Zn86       1.0     0.652426     0.552782     0.728828    Uiso  ? Zn
   Zn87       1.0     0.448846     0.541346     0.742663    Uiso  ? Zn
   Zn88       1.0     0.435581     0.566377     0.684184    Uiso  ? Zn
   Zn89       1.0     0.509339     0.392439     0.748800    Uiso  ? Zn
   Zn90       1.0     0.523545     0.349938     0.699418    Uiso  ? Zn
   Zn91       1.0     0.454000     0.655494     0.879002    Uiso  ? Zn
   Zn92       1.0     0.434102     0.718774     0.869448    Uiso  ? Zn
   Zn93       1.0     0.611002     0.626634     0.128553    Uiso  ? Zn
   Zn94       1.0     0.656560     0.674415     0.138500    Uiso  ? Zn
   Zn95       1.0     0.329692     0.531756     0.869391    Uiso  ? Zn
   Zn96       1.0     0.266595     0.542673     0.850765    Uiso  ? Zn
   H457       1.0     0.454266     0.515294     0.795827    Uiso  ? H
   H458       1.0     0.485089     0.511162     0.776535    Uiso  ? H
   H459       1.0     0.551221     0.490881     0.205412    Uiso  ? H
   H460       1.0     0.519199     0.489286     0.219738    Uiso  ? H
   H461       1.0     0.611376     0.476978     0.896921    Uiso  ? H
   H462       1.0     0.605189     0.458380     0.126885    Uiso  ? H
   H463       1.0     0.530913     0.393845     0.109320    Uiso  ? H
   H464       1.0     0.501846     0.378034     0.121362    Uiso  ? H
   H465       1.0     0.378219     0.545659     0.885276    Uiso  ? H
   H466       1.0     0.383589     0.509179     0.878502    Uiso  ? H
   H467       1.0     0.381777     0.512056     0.172606    Uiso  ? H
   H468       1.0     0.384948     0.479584     0.156092    Uiso  ? H
   H469       1.0     0.428319     0.411619     0.860352    Uiso  ? H
   H470       1.0     0.396326     0.423473     0.854359    Uiso  ? H
   H471       1.0     0.460994     0.602184     0.895130    Uiso  ? H
   H472       1.0     0.495401     0.610633     0.887419    Uiso  ? H
   H473       1.0     0.459215     0.562195     0.198622    Uiso  ? H
   H474       1.0     0.482916     0.548860     0.222638    Uiso  ? H
   H475       1.0     0.566030     0.593887     0.147417    Uiso  ? H
   H476       1.0     0.580162     0.575551     0.120925    Uiso  ? H
   H477       1.0     0.474478     0.422368     0.786948    Uiso  ? H
   H478       1.0     0.508491     0.436618     0.788511    Uiso  ? H
   H479       1.0     0.570334     0.502117     0.800721    Uiso  ? H
   H480       1.0     0.595728     0.513842     0.825853    Uiso  ? H
   C769       1.0     0.711403     0.347787     0.487644    Uiso  ? C
   H481       1.0     0.734240     0.354129     0.488662    Uiso  ? H
   C770       1.0     0.665492     0.350733     0.488963    Uiso  ? C
   N1         1.0     0.689604     0.366691     0.488640    Uiso  ? N
   C771       1.0     0.692493     0.397704     0.491492    Uiso  ? C
   H482       1.0     0.686710     0.401873     0.513918    Uiso  ? H
   H483       1.0     0.716254     0.405428     0.490365    Uiso  ? H
   C772       1.0     0.674968     0.413489     0.469073    Uiso  ? C
   C773       1.0     0.647189     0.423668     0.476878    Uiso  ? C
   C774       1.0     0.686195     0.418809     0.440569    Uiso  ? C
   C775       1.0     0.630858     0.440040     0.457769    Uiso  ? C
   H484       1.0     0.639362     0.421268     0.499319    Uiso  ? H
   C776       1.0     0.669277     0.435323     0.421838    Uiso  ? C
   H485       1.0     0.706018     0.409064     0.433609    Uiso  ? H
   C777       1.0     0.642454     0.447070     0.430394    Uiso  ? C
   H486       1.0     0.610515     0.450121     0.464779    Uiso  ? H
   H487       1.0     0.676057     0.437597     0.399322    Uiso  ? H
   C778       1.0     0.624795     0.463008     0.408866    Uiso  ? C
   H488       1.0     0.611000     0.477743     0.421735    Uiso  ? H
   H489       1.0     0.639443     0.474692     0.392958    Uiso  ? H
   N2         1.0     0.606479     0.441835     0.393950    Uiso  ? N
   C779       1.0     0.605995     0.438957     0.363994    Uiso  ? C
   N3         1.0     0.581854     0.425380     0.354765    Uiso  ? N
   C780       1.0     0.566196     0.420346     0.378896    Uiso  ? C
   H490       1.0     0.542579     0.418018     0.379545    Uiso  ? H
   C781       1.0     0.581219     0.430241     0.403207    Uiso  ? C
   H491       1.0     0.572826     0.430770     0.424991    Uiso  ? H
   N4         1.0     0.671157     0.321851     0.484222    Uiso  ? N
   C782       1.0     0.700532     0.320157     0.484910    Uiso  ? C
   H492       1.0     0.714415     0.300849     0.482731    Uiso  ? H
   H493       1.0     0.644557     0.358975     0.490525    Uiso  ? H
   H494       1.0     0.623479     0.445862     0.350482    Uiso  ? H
   C783       1.0     0.563645     0.835408     0.195558    Uiso  ? C
   H495       1.0     0.554346     0.839448     0.173493    Uiso  ? H
   C784       1.0     0.592527     0.836797     0.232682    Uiso  ? C
   N5         1.0     0.593055     0.839389     0.203591    Uiso  ? N
   C785       1.0     0.616637     0.853857     0.186987    Uiso  ? C
   H496       1.0     0.607335     0.863805     0.167950    Uiso  ? H
   H497       1.0     0.627054     0.871000     0.198583    Uiso  ? H
   C786       1.0     0.636119     0.828529     0.176126    Uiso  ? C
   C787       1.0     0.665319     0.825593     0.185331    Uiso  ? C
   C788       1.0     0.628104     0.813842     0.150722    Uiso  ? C
   C789       1.0     0.685245     0.808557     0.169249    Uiso  ? C
   H498       1.0     0.672690     0.839007     0.202667    Uiso  ? H
   C790       1.0     0.648445     0.798706     0.133630    Uiso  ? C
   H499       1.0     0.605892     0.814143     0.141069    Uiso  ? H
   C791       1.0     0.677922     0.796489     0.142015    Uiso  ? C
   H500       1.0     0.707824     0.806729     0.177310    Uiso  ? H
   H501       1.0     0.641216     0.788614     0.112031    Uiso  ? H
   C792       1.0     0.700467     0.779955     0.122508    Uiso  ? C
   H502       1.0     0.696234     0.783403     0.100102    Uiso  ? H
   H503       1.0     0.724343     0.787210     0.125768    Uiso  ? H
   N6         1.0     0.700412     0.749195     0.128578    Uiso  ? N
   C793       1.0     0.678388     0.731001     0.124803    Uiso  ? C
   N7         1.0     0.684072     0.704258     0.134978    Uiso  ? N
   C794       1.0     0.711008     0.705313     0.146440    Uiso  ? C
   H504       1.0     0.720482     0.686789     0.155307    Uiso  ? H
   C795       1.0     0.721309     0.733207     0.143022    Uiso  ? C
   H505       1.0     0.742087     0.741408     0.151390    Uiso  ? H
   N8         1.0     0.566104     0.829614     0.243715    Uiso  ? N
   C796       1.0     0.547028     0.828758     0.220537    Uiso  ? C
   H506       1.0     0.522525     0.829016     0.222547    Uiso  ? H
   H507       1.0     0.609288     0.845309     0.247087    Uiso  ? H
   H508       1.0     0.656994     0.734349     0.116424    Uiso  ? H
   C797       1.0     0.414764     0.579876     0.595768    Uiso  ? C
   H509       1.0     0.417241     0.591221     0.575768    Uiso  ? H
   C798       1.0     0.400313     0.550834     0.629471    Uiso  ? C
   N9         1.0     0.394498     0.559649     0.601784    Uiso  ? N
   C799       1.0     0.373303     0.545362     0.583372    Uiso  ? C
   H510       1.0     0.383838     0.537037     0.563804    Uiso  ? H
   H511       1.0     0.364393     0.525526     0.593804    Uiso  ? H
   C800       1.0     0.348040     0.564586     0.576346    Uiso  ? C
   C801       1.0     0.329502     0.574874     0.599301    Uiso  ? C
   C802       1.0     0.342705     0.570360     0.546524    Uiso  ? C
   C803       1.0     0.305394     0.592387     0.592557    Uiso  ? C
   H512       1.0     0.333633     0.567255     0.621465    Uiso  ? H
   C804       1.0     0.320864     0.590793     0.540876    Uiso  ? C
   H513       1.0     0.357416     0.561743     0.530304    Uiso  ? H
   C805       1.0     0.299904     0.600317     0.563193    Uiso  ? C
   H514       1.0     0.293535     0.602898     0.609934    Uiso  ? H
   H515       1.0     0.319270     0.598781     0.518939    Uiso  ? H
   C806       1.0     0.275154     0.618371     0.552625    Uiso  ? C
   H516       1.0     0.263472     0.607006     0.534693    Uiso  ? H
   H517       1.0     0.258314     0.621317     0.569985    Uiso  ? H
   N10        1.0     0.284907     0.646429     0.542038    Uiso  ? N
   C807       1.0     0.310797     0.659268     0.547037    Uiso  ? C
   N11        1.0     0.313164     0.685435     0.534110    Uiso  ? N
   C808       1.0     0.287012     0.690624     0.523233    Uiso  ? C
   H518       1.0     0.280884     0.710925     0.513669    Uiso  ? H
   C809       1.0     0.270085     0.666959     0.527891    Uiso  ? C
   H519       1.0     0.246934     0.666005     0.522877    Uiso  ? H
   N12        1.0     0.419879     0.568851     0.643505    Uiso  ? N
   C810       1.0     0.430549     0.585464     0.621009    Uiso  ? C
   H520       1.0     0.446786     0.603151     0.622714    Uiso  ? H
   H521       1.0     0.389322     0.534187     0.641133    Uiso  ? H
   H522       1.0     0.328193     0.652059     0.559413    Uiso  ? H
   C811       1.0     0.416760     0.197094     0.788981    Uiso  ? C
   H523       1.0     0.415216     0.212429     0.807277    Uiso  ? H
   C812       1.0     0.415574     0.158061     0.764447    Uiso  ? C
   N13        1.0     0.406400     0.170440     0.790221    Uiso  ? N
   C813       1.0     0.394745     0.153802     0.815589    Uiso  ? C
   H524       1.0     0.387416     0.132332     0.808599    Uiso  ? H
   H525       1.0     0.413491     0.148312     0.828653    Uiso  ? H
   C814       1.0     0.371150     0.169496     0.832588    Uiso  ? C
   C815       1.0     0.340864     0.170461     0.822669    Uiso  ? C
   C816       1.0     0.379180     0.184224     0.858242    Uiso  ? C
   C817       1.0     0.319718     0.183977     0.838729    Uiso  ? C
   H526       1.0     0.336014     0.161901     0.801497    Uiso  ? H
   C818       1.0     0.357726     0.197413     0.873739    Uiso  ? C
   H527       1.0     0.402683     0.185010     0.865405    Uiso  ? H
   C819       1.0     0.328279     0.196794     0.865065    Uiso  ? C
   H528       1.0     0.298327     0.188878     0.829961    Uiso  ? H
   H529       1.0     0.363911     0.210398     0.891677    Uiso  ? H
   C820       1.0     0.306289     0.213422     0.883532    Uiso  ? C
   H530       1.0     0.285778     0.203545     0.884058    Uiso  ? H
   H531       1.0     0.314442     0.216668     0.105787    Uiso  ? H
   N14        1.0     0.302690     0.242723     0.872531    Uiso  ? N
   C821       1.0     0.323590     0.263507     0.873178    Uiso  ? C
   N15        1.0     0.313297     0.289115     0.862988    Uiso  ? N
   C822       1.0     0.284924     0.285270     0.857720    Uiso  ? C
   H532       1.0     0.269825     0.302782     0.851920    Uiso  ? H
   C823       1.0     0.277840     0.257261     0.863706    Uiso  ? C
   H533       1.0     0.254859     0.249450     0.866351    Uiso  ? H
   N16        1.0     0.429745     0.177137     0.747286    Uiso  ? N
   C824       1.0     0.431231     0.202117     0.763130    Uiso  ? C
   H534       1.0     0.439534     0.222579     0.757260    Uiso  ? H
   H535       1.0     0.409165     0.136385     0.759374    Uiso  ? H
   H536       1.0     0.345512     0.261002     0.881963    Uiso  ? H
   C825       1.0     0.855434     0.204604     0.623295    Uiso  ? C
   H537       1.0     0.855718     0.180809     0.621411    Uiso  ? H
   C826       1.0     0.855095     0.248609     0.639962    Uiso  ? C
   N17        1.0     0.854447     0.220072     0.648167    Uiso  ? N
   C827       1.0     0.857873     0.206205     0.677669    Uiso  ? C
   H538       1.0     0.867819     0.183667     0.675732    Uiso  ? H
   H539       1.0     0.873099     0.218585     0.691668    Uiso  ? H
   C828       1.0     0.828371     0.201723     0.691906    Uiso  ? C
   C829       1.0     0.803034     0.217218     0.683926    Uiso  ? C
   C830       1.0     0.827137     0.183997     0.717610    Uiso  ? C
   C831       1.0     0.776247     0.212929     0.698870    Uiso  ? C
   H540       1.0     0.803030     0.232407     0.663852    Uiso  ? H
   C832       1.0     0.800828     0.178692     0.732358    Uiso  ? C
   H541       1.0     0.848666     0.176926     0.725328    Uiso  ? H
   C833       1.0     0.775753     0.192885     0.722205    Uiso  ? C
   H542       1.0     0.757051     0.223018     0.687761    Uiso  ? H
   H543       1.0     0.800263     0.163127     0.749464    Uiso  ? H
   C834       1.0     0.746976     0.187978     0.740582    Uiso  ? C
   H544       1.0     0.751857     0.183158     0.763122    Uiso  ? H
   H545       1.0     0.733762     0.207286     0.738213    Uiso  ? H
   N18        1.0     0.729545     0.164870     0.727197    Uiso  ? N
   C835       1.0     0.715789     0.164879     0.700113    Uiso  ? C
   N19        1.0     0.698551     0.141328     0.696647    Uiso  ? N
   C836       1.0     0.699918     0.126563     0.721342    Uiso  ? C
   H546       1.0     0.687558     0.107544     0.725900    Uiso  ? H
   C837       1.0     0.720573     0.140357     0.739235    Uiso  ? C
   H547       1.0     0.726136     0.132342     0.761119    Uiso  ? H
   N20        1.0     0.855159     0.250483     0.610249    Uiso  ? N
   C838       1.0     0.853608     0.224047     0.600188    Uiso  ? C
   H548       1.0     0.853501     0.217021     0.577106    Uiso  ? H
   H549       1.0     0.855176     0.267462     0.654612    Uiso  ? H
   H550       1.0     0.717348     0.183281     0.684575    Uiso  ? H
   C839       1.0     0.601885     0.607194     0.428156    Uiso  ? C
   H551       1.0     0.618198     0.590622     0.421169    Uiso  ? H
   C840       1.0     0.561819     0.630004     0.435839    Uiso  ? C
   N21        1.0     0.572525     0.605833     0.424469    Uiso  ? N
   C841       1.0     0.555139     0.581313     0.412521    Uiso  ? C
   H552       1.0     0.552927     0.564353     0.430233    Uiso  ? H
   H553       1.0     0.533029     0.588810     0.403452    Uiso  ? H
   C842       1.0     0.571673     0.568386     0.387553    Uiso  ? C
   C843       1.0     0.577860     0.538504     0.387617    Uiso  ? C
   C844       1.0     0.576615     0.585123     0.362028    Uiso  ? C
   C845       1.0     0.590520     0.525539     0.362782    Uiso  ? C
   H554       1.0     0.571391     0.524397     0.405797    Uiso  ? H
   C846       1.0     0.591773     0.571693     0.338058    Uiso  ? C
   H555       1.0     0.565549     0.606416     0.359761    Uiso  ? H
   C847       1.0     0.596940     0.542167     0.338038    Uiso  ? C
   H556       1.0     0.594283     0.502252     0.361596    Uiso  ? H
   H557       1.0     0.596796     0.583584     0.318563    Uiso  ? H
   C848       1.0     0.609829     0.526526     0.311725    Uiso  ? C
   H558       1.0     0.604824     0.503528     0.312406    Uiso  ? H
   H559       1.0     0.599137     0.534056     0.292256    Uiso  ? H
   N22        1.0     0.640478     0.531121     0.309919    Uiso  ? N
   C849       1.0     0.660246     0.520319     0.328964    Uiso  ? C
   N23        1.0     0.686916     0.533239     0.324444    Uiso  ? N
   C850       1.0     0.683773     0.552411     0.303075    Uiso  ? C
   H560       1.0     0.699862     0.568391     0.295964    Uiso  ? H
   C851       1.0     0.654686     0.552086     0.294979    Uiso  ? C
   H561       1.0     0.644365     0.566628     0.280500    Uiso  ? H
   N24        1.0     0.582944     0.644437     0.448667    Uiso  ? N
   C852       1.0     0.608943     0.629727     0.445301    Uiso  ? C
   H562       1.0     0.628875     0.635291     0.456247    Uiso  ? H
   H563       1.0     0.538834     0.635376     0.436845    Uiso  ? H
   H564       1.0     0.656123     0.504111     0.347117    Uiso  ? H
   C853       1.0     0.332756     0.436286     0.719176    Uiso  ? C
   H565       1.0     0.337514     0.422794     0.737042    Uiso  ? H
   C854       1.0     0.335924     0.467293     0.684627    Uiso  ? C
   N25        1.0     0.351275     0.452316     0.703915    Uiso  ? N
   C855       1.0     0.383526     0.452958     0.707769    Uiso  ? C
   H566       1.0     0.390543     0.476247     0.712456    Uiso  ? H
   H567       1.0     0.389438     0.438774     0.724930    Uiso  ? H
   C856       1.0     0.397785     0.445430     0.679785    Uiso  ? C
   C857       1.0     0.404745     0.415961     0.673843    Uiso  ? C
   C858       1.0     0.400307     0.466142     0.657719    Uiso  ? C
   C859       1.0     0.415874     0.408962     0.645972    Uiso  ? C
   H568       1.0     0.404024     0.398381     0.690331    Uiso  ? H
   C860       1.0     0.412997     0.458981     0.630364    Uiso  ? C
   H569       1.0     0.393530     0.488098     0.659412    Uiso  ? H
   C861       1.0     0.420927     0.430003     0.623983    Uiso  ? C
   H570       1.0     0.423687     0.386018     0.643404    Uiso  ? H
   H571       1.0     0.415173     0.477214     0.614230    Uiso  ? H
   C862       1.0     0.433264     0.421565     0.594811    Uiso  ? C
   H572       1.0     0.431977     0.443078     0.581664    Uiso  ? H
   H573       1.0     0.455498     0.416289     0.596866    Uiso  ? H
   N26        1.0     0.415467     0.400220     0.580815    Uiso  ? N
   C863       1.0     0.425007     0.375994     0.569234    Uiso  ? C
   N27        1.0     0.404887     0.361541     0.555333    Uiso  ? N
   C864       1.0     0.380034     0.377151     0.559577    Uiso  ? C
   H574       1.0     0.358702     0.369921     0.553529    Uiso  ? H
   C865       1.0     0.386208     0.400265     0.577382    Uiso  ? C
   H575       1.0     0.370676     0.415703     0.583767    Uiso  ? H
   N28        1.0     0.307654     0.461604     0.686782    Uiso  ? N
   C866       1.0     0.305868     0.440654     0.707798    Uiso  ? C
   H576       1.0     0.287209     0.429023     0.714286    Uiso  ? H
   H577       1.0     0.346700     0.484462     0.669480    Uiso  ? H
   H578       1.0     0.447175     0.369458     0.569950    Uiso  ? H
   C867       1.0     0.168816     0.791894     0.378490    Uiso  ? C
   H579       1.0     0.171663     0.814591     0.375865    Uiso  ? H
   C868       1.0     0.156347     0.748160     0.371884    Uiso  ? C
   N29        1.0     0.160890     0.773082     0.358060    Uiso  ? N
   C869       1.0     0.153216     0.780259     0.327591    Uiso  ? C
   H580       1.0     0.140018     0.763810     0.316525    Uiso  ? H
   H581       1.0     0.140081     0.799206     0.328117    Uiso  ? H
   C870       1.0     0.179717     0.783753     0.308556    Uiso  ? C
   C871       1.0     0.181376     0.808529     0.289391    Uiso  ? C
   C872       1.0     0.204104     0.764506     0.311201    Uiso  ? C
   C873       1.0     0.205713     0.810955     0.270852    Uiso  ? C
   H582       1.0     0.163985     0.823883     0.288185    Uiso  ? H
   C874       1.0     0.226705     0.768348     0.293241    Uiso  ? C
   H583       1.0     0.202145     0.748016     0.326888    Uiso  ? H
   C875       1.0     0.228734     0.791722     0.274470    Uiso  ? C
   H584       1.0     0.205093     0.827769     0.254403    Uiso  ? H
   H585       1.0     0.244545     0.752938     0.296781    Uiso  ? H
   C876       1.0     0.257541     0.797459     0.259085    Uiso  ? C
   H586       1.0     0.272105     0.776430     0.257373    Uiso  ? H
   H587       1.0     0.251776     0.804124     0.237447    Uiso  ? H
   N30        1.0     0.272898     0.820361     0.276231    Uiso  ? N
   C877       1.0     0.287809     0.817164     0.301352    Uiso  ? C
   N31        1.0     0.304350     0.841027     0.307652    Uiso  ? N
   C878       1.0     0.297370     0.860730     0.286955    Uiso  ? C
   H588       1.0     0.305226     0.882861     0.285366    Uiso  ? H
   C879       1.0     0.278106     0.847777     0.267703    Uiso  ? C
   H589       1.0     0.269362     0.855122     0.247864    Uiso  ? H
   N32        1.0     0.159557     0.750789     0.401008    Uiso  ? N
   C880       1.0     0.167025     0.778929     0.405594    Uiso  ? C
   H590       1.0     0.174611     0.789472     0.426026    Uiso  ? H
   H591       1.0     0.150409     0.728051     0.359707    Uiso  ? H
   H592       1.0     0.287541     0.797057     0.313391    Uiso  ? H
   C881       1.0     0.817441     0.421499     0.138031    Uiso  ? C
   H593       1.0     0.837351     0.414151     0.128556    Uiso  ? H
   C882       1.0     0.781516     0.425550     0.170193    Uiso  ? C
   N33        1.0     0.810055     0.417409     0.166515    Uiso  ? N
   C883       1.0     0.830780     0.411030     0.190099    Uiso  ? C
   H594       1.0     0.853521     0.412860     0.179802    Uiso  ? H
   H595       1.0     0.829031     0.426487     0.208445    Uiso  ? H
   C884       1.0     0.828157     0.381095     0.200684    Uiso  ? C
   C885       1.0     0.803207     0.372500     0.217491    Uiso  ? C
   C886       1.0     0.851640     0.361517     0.196128    Uiso  ? C
   C887       1.0     0.801250     0.344500     0.228576    Uiso  ? C
   H596       1.0     0.788393     0.388872     0.225991    Uiso  ? H
   C888       1.0     0.849518     0.333476     0.206659    Uiso  ? C
   H597       1.0     0.871782     0.368879     0.185847    Uiso  ? H
   C889       1.0     0.824886     0.324315     0.222951    Uiso  ? C
   H598       1.0     0.784183     0.336630     0.242263    Uiso  ? H
   H599       1.0     0.868133     0.318270     0.205923    Uiso  ? H
   C890       1.0     0.824274     0.293905     0.237277    Uiso  ? C
   H600       1.0     0.802440     0.286268     0.239076    Uiso  ? H
   H601       1.0     0.835320     0.277211     0.222894    Uiso  ? H
   N34        1.0     0.838507     0.295263     0.266152    Uiso  ? N
   C891       1.0     0.838553     0.318986     0.284005    Uiso  ? C
   N35        1.0     0.845602     0.311159     0.311317    Uiso  ? N
   C892       1.0     0.848395     0.281044     0.309904    Uiso  ? C
   H602       1.0     0.855261     0.268294     0.329298    Uiso  ? H
   C893       1.0     0.845886     0.271247     0.281994    Uiso  ? C
   H603       1.0     0.844798     0.249683     0.273874    Uiso  ? H
   N36        1.0     0.770726     0.436164     0.144118    Uiso  ? N
   C894       1.0     0.792667     0.434155     0.124515    Uiso  ? C
   H604       1.0     0.790549     0.440468     0.101468    Uiso  ? H
   H605       1.0     0.768376     0.426743     0.190811    Uiso  ? H
   H606       1.0     0.833117     0.340390     0.278910    Uiso  ? H
   C895       1.0     0.424091     0.700052     0.351308    Uiso  ? C
   H607       1.0     0.405721     0.709064     0.363849    Uiso  ? H
   C896       1.0     0.467570     0.692301     0.334623    Uiso  ? C
   N37        1.0     0.452759     0.706468     0.356121    Uiso  ? N
   C897       1.0     0.464792     0.717012     0.383159    Uiso  ? C
   H608       1.0     0.489142     0.719357     0.379113    Uiso  ? H
   H609       1.0     0.456175     0.738828     0.390685    Uiso  ? H
   C898       1.0     0.459298     0.695507     0.406485    Uiso  ? C
   C899       1.0     0.435238     0.697453     0.424806    Uiso  ? C
   C900       1.0     0.473137     0.669113     0.404131    Uiso  ? C
   C901       1.0     0.424358     0.673297     0.437441    Uiso  ? C
   H610       1.0     0.421084     0.716686     0.426878    Uiso  ? H
   C902       1.0     0.463307     0.644022     0.418590    Uiso  ? C
   H611       1.0     0.489708     0.664961     0.386977    Uiso  ? H
   C903       1.0     0.438551     0.646079     0.435917    Uiso  ? C
   H612       1.0     0.405583     0.675370     0.452796    Uiso  ? H
   H613       1.0     0.474930     0.623614     0.415867    Uiso  ? H
   C904       1.0     0.425500     0.619777     0.451634    Uiso  ? C
   H614       1.0     0.442912     0.601902     0.454048    Uiso  ? H
   H615       1.0     0.421731     0.623928     0.473482    Uiso  ? H
   N38        1.0     0.400521     0.609502     0.437407    Uiso  ? N
   C905       1.0     0.375769     0.598338     0.450427    Uiso  ? C
   N39        1.0     0.359381     0.585508     0.429069    Uiso  ? N
   C906       1.0     0.373950     0.588718     0.403760    Uiso  ? C
   H616       1.0     0.367088     0.582103     0.382349    Uiso  ? H
   C907       1.0     0.398704     0.604555     0.409005    Uiso  ? C
   H617       1.0     0.417555     0.608635     0.393670    Uiso  ? H
   N40        1.0     0.450147     0.674264     0.319864    Uiso  ? N
   C908       1.0     0.423065     0.681288     0.328228    Uiso  ? C
   H618       1.0     0.403816     0.669901     0.321793    Uiso  ? H
   H619       1.0     0.491195     0.692961     0.331476    Uiso  ? H
   H620       1.0     0.369934     0.598611     0.473045    Uiso  ? H
   C909       1.0     0.180463     0.573599     0.853623    Uiso  ? C
   H621       1.0     0.161855     0.583916     0.863794    Uiso  ? H
   C910       1.0     0.211376     0.562953     0.821488    Uiso  ? C
   N41        1.0     0.184873     0.575538     0.824530    Uiso  ? N
   C911       1.0     0.166080     0.589736     0.802667    Uiso  ? C
   H622       1.0     0.168884     0.577554     0.782986    Uiso  ? H
   H623       1.0     0.143135     0.587567     0.809946    Uiso  ? H
   C912       1.0     0.175655     0.621559     0.798470    Uiso  ? C
   C913       1.0     0.204488     0.628510     0.792099    Uiso  ? C
   C914       1.0     0.154899     0.644584     0.793582    Uiso  ? C
   C915       1.0     0.212732     0.655079     0.781416    Uiso  ? C
   H624       1.0     0.222047     0.611360     0.793148    Uiso  ? H
   C916       1.0     0.164126     0.672506     0.786413    Uiso  ? C
   H625       1.0     0.131004     0.642105     0.793039    Uiso  ? H
   C917       1.0     0.193239     0.679320     0.780184    Uiso  ? C
   H626       1.0     0.234851     0.657285     0.775008    Uiso  ? H
   H627       1.0     0.148458     0.688582     0.781302    Uiso  ? H
   C918       1.0     0.201702     0.708907     0.768232    Uiso  ? C
   H628       1.0     0.195724     0.727175     0.783949    Uiso  ? H
   H629       1.0     0.226329     0.709300     0.768750    Uiso  ? H
   N42        1.0     0.190184     0.711853     0.738992    Uiso  ? N
   C919       1.0     0.189382     0.690613     0.718403    Uiso  ? C
   N43        1.0     0.176386     0.700316     0.694125    Uiso  ? N
   C920       1.0     0.168612     0.728903     0.699733    Uiso  ? C
   H630       1.0     0.158187     0.743810     0.683991    Uiso  ? H
   C921       1.0     0.174833     0.735513     0.728617    Uiso  ? C
   H631       1.0     0.171073     0.754880     0.741949    Uiso  ? H
   N44        1.0     0.224608     0.556427     0.846209    Uiso  ? N
   C922       1.0     0.204849     0.561904     0.866443    Uiso  ? C
   H632       1.0     0.208568     0.560780     0.889323    Uiso  ? H
   H633       1.0     0.222793     0.562747     0.799859    Uiso  ? H
   H634       1.0     0.194678     0.668916     0.723454    Uiso  ? H
   C923       1.0     0.548895     0.286322     0.641841    Uiso  ? C
   H635       1.0     0.562110     0.270264     0.630725    Uiso  ? H
   C924       1.0     0.521075     0.322162     0.643889    Uiso  ? C
   N45        1.0     0.531966     0.302594     0.625920    Uiso  ? N
   C925       1.0     0.525104     0.298823     0.595394    Uiso  ? C
   H636       1.0     0.529664     0.277432     0.586851    Uiso  ? H
   H637       1.0     0.501905     0.302212     0.593016    Uiso  ? H
   C926       1.0     0.539017     0.323468     0.578196    Uiso  ? C
   C927       1.0     0.522372     0.349207     0.574420    Uiso  ? C
   C928       1.0     0.568683     0.320653     0.568231    Uiso  ? C
   C929       1.0     0.536775     0.372607     0.560199    Uiso  ? C
   H638       1.0     0.498037     0.349833     0.580572    Uiso  ? H
   C930       1.0     0.582284     0.344708     0.555080    Uiso  ? C
   H639       1.0     0.578847     0.299406     0.570928    Uiso  ? H
   C931       1.0     0.565916     0.371753     0.551691    Uiso  ? C
   H640       1.0     0.524370     0.391567     0.553291    Uiso  ? H
   H641       1.0     0.605156     0.344411     0.545788    Uiso  ? H
   C932       1.0     0.579672     0.397064     0.536006    Uiso  ? C
   H642       1.0     0.590793     0.387946     0.516873    Uiso  ? H
   H643       1.0     0.563036     0.411388     0.528020    Uiso  ? H
   N46        1.0     0.597823     0.414603     0.555283    Uiso  ? N
   C933       1.0     0.627425     0.414164     0.558048    Uiso  ? C
   N47        1.0     0.635970     0.436312     0.575359    Uiso  ? N
   C934       1.0     0.612848     0.451014     0.584538    Uiso  ? C
   H644       1.0     0.613470     0.471374     0.596768    Uiso  ? H
   C935       1.0     0.588790     0.437920     0.572455    Uiso  ? C
   H645       1.0     0.564647     0.444982     0.575650    Uiso  ? H
   N48        1.0     0.530915     0.319209     0.670873    Uiso  ? N
   C936       1.0     0.550354     0.297591     0.669718    Uiso  ? C
   H646       1.0     0.562256     0.290810     0.688556    Uiso  ? H
   H647       1.0     0.507157     0.340436     0.637766    Uiso  ? H
   H648       1.0     0.640152     0.401076     0.544628    Uiso  ? H
   C937       1.0     0.850745     0.577853     0.823519    Uiso  ? C
   H649       1.0     0.858952     0.557519     0.814718    Uiso  ? H
   C938       1.0     0.824246     0.616704     0.828238    Uiso  ? C
   N49        1.0     0.823582     0.587912     0.819931    Uiso  ? N
   C939       1.0     0.797127     0.571771     0.807526    Uiso  ? C
   H650       1.0     0.800033     0.547792     0.811149    Uiso  ? H
   H651       1.0     0.777902     0.574853     0.822379    Uiso  ? H
   C940       1.0     0.790815     0.579144     0.775334    Uiso  ? C
   C941       1.0     0.799302     0.559251     0.755138    Uiso  ? C
   C942       1.0     0.774183     0.604023     0.766841    Uiso  ? C
   C943       1.0     0.791916     0.562014     0.725555    Uiso  ? C
   H652       1.0     0.814202     0.540863     0.762006    Uiso  ? H
   C944       1.0     0.762761     0.604721     0.739346    Uiso  ? C
   H653       1.0     0.765642     0.617514     0.783779    Uiso  ? H
   C945       1.0     0.770584     0.584501     0.717365    Uiso  ? C
   H654       1.0     0.799422     0.546113     0.710091    Uiso  ? H
   H655       1.0     0.747898     0.622358     0.734089    Uiso  ? H
   C946       1.0     0.757487     0.588026     0.686621    Uiso  ? C
   H656       1.0     0.756199     0.611059     0.682229    Uiso  ? H
   H657       1.0     0.770912     0.578506     0.669187    Uiso  ? H
   N50        1.0     0.728582     0.574711     0.685293    Uiso  ? N
   C947       1.0     0.706629     0.579159     0.705195    Uiso  ? C
   N51        1.0     0.684647     0.559402     0.702242    Uiso  ? N
   C948       1.0     0.693105     0.541413     0.679722    Uiso  ? C
   H658       1.0     0.679794     0.524012     0.670971    Uiso  ? H
   C949       1.0     0.719588     0.551955     0.668377    Uiso  ? C
   H659       1.0     0.733690     0.540304     0.653127    Uiso  ? H
   N52        1.0     0.851861     0.624014     0.836390    Uiso  ? N
   C950       1.0     0.868797     0.600059     0.831839    Uiso  ? C
   H660       1.0     0.890378     0.596982     0.837900    Uiso  ? H
   H661       1.0     0.806070     0.631657     0.827476    Uiso  ? H
   H662       1.0     0.707396     0.597091     0.720892    Uiso  ? H
   C951       1.0     0.600989     0.199828     0.146762    Uiso  ? C
   H663       1.0     0.616364     0.181186     0.145159    Uiso  ? H
   C952       1.0     0.566392     0.226753     0.161867    Uiso  ? C
   N53        1.0     0.575938     0.199513     0.163001    Uiso  ? N
   C953       1.0     0.563839     0.174528     0.176856    Uiso  ? C
   H664       1.0     0.542564     0.180188     0.184049    Uiso  ? H
   H665       1.0     0.565779     0.154759     0.161752    Uiso  ? H
   C954       1.0     0.580264     0.167229     0.205161    Uiso  ? C
   C955       1.0     0.585698     0.138086     0.210959    Uiso  ? C
   C956       1.0     0.582673     0.188103     0.227722    Uiso  ? C
   C957       1.0     0.597512     0.129654     0.237812    Uiso  ? C
   H666       1.0     0.578974     0.121920     0.197116    Uiso  ? H
   C958       1.0     0.593933     0.179885     0.254708    Uiso  ? C
   H667       1.0     0.574586     0.210889     0.224781    Uiso  ? H
   C959       1.0     0.599952     0.150694     0.261157    Uiso  ? C
   H668       1.0     0.600421     0.107103     0.240874    Uiso  ? H
   H669       1.0     0.593739     0.195382     0.271937    Uiso  ? H
   C960       1.0     0.612926     0.141945     0.291413    Uiso  ? C
   H670       1.0     0.600852     0.151525     0.310685    Uiso  ? H
   H671       1.0     0.612837     0.118286     0.293509    Uiso  ? H
   N54        1.0     0.643970     0.149283     0.292151    Uiso  ? N
   C961       1.0     0.664439     0.137272     0.275735    Uiso  ? C
   N55        1.0     0.688899     0.153447     0.271288    Uiso  ? N
   C962       1.0     0.682063     0.179843     0.283584    Uiso  ? C
   H672       1.0     0.695985     0.199841     0.284147    Uiso  ? H
   C963       1.0     0.653941     0.176760     0.295289    Uiso  ? C
   H673       1.0     0.642913     0.194967     0.306174    Uiso  ? H
   N56        1.0     0.582201     0.243625     0.144008    Uiso  ? N
   C964       1.0     0.605754     0.227840     0.137281    Uiso  ? C
   H674       1.0     0.620760     0.234128     0.121102    Uiso  ? H
   H675       1.0     0.545375     0.233335     0.169848    Uiso  ? H
   H676       1.0     0.662002     0.115045     0.265857    Uiso  ? H
   C965       1.0     0.360237     0.809830     0.711303    Uiso  ? C
   H677       1.0     0.372548     0.791167     0.704400    Uiso  ? H
   C966       1.0     0.347580     0.855253     0.717422    Uiso  ? C
   N57        1.0     0.369530     0.837963     0.708328    Uiso  ? N
   C967       1.0     0.400289     0.845451     0.707392    Uiso  ? C
   H678       1.0     0.410040     0.830787     0.692144    Uiso  ? H
   H679       1.0     0.405734     0.866451     0.699641    Uiso  ? H
   C968       1.0     0.412681     0.842254     0.737549    Uiso  ? C
   C969       1.0     0.422633     0.814781     0.747546    Uiso  ? C
   C970       1.0     0.410023     0.865801     0.757723    Uiso  ? C
   C971       1.0     0.432351     0.811477     0.776603    Uiso  ? C
   H680       1.0     0.424218     0.796404     0.731897    Uiso  ? H
   C972       1.0     0.418929     0.861745     0.786915    Uiso  ? C
   H681       1.0     0.399551     0.885759     0.750940    Uiso  ? H
   C973       1.0     0.430241     0.834196     0.796644    Uiso  ? C
   H682       1.0     0.439250     0.790226     0.785624    Uiso  ? H
   H683       1.0     0.415197     0.879367     0.802541    Uiso  ? H
   C974       1.0     0.441643     0.829937     0.827544    Uiso  ? C
   H684       1.0     0.466747     0.826000     0.828214    Uiso  ? H
   H685       1.0     0.434447     0.850549     0.838950    Uiso  ? H
   N58        1.0     0.428750     0.805037     0.841608    Uiso  ? N
   C975       1.0     0.440674     0.777896     0.842730    Uiso  ? C
   N59        1.0     0.423565     0.758732     0.856052    Uiso  ? N
   C976       1.0     0.400442     0.774279     0.865340    Uiso  ? C
   H686       1.0     0.382439     0.764784     0.878738    Uiso  ? H
   C977       1.0     0.403878     0.803545     0.857869    Uiso  ? C
   H687       1.0     0.390231     0.822047     0.864794    Uiso  ? H
   N60        1.0     0.325999     0.839492     0.726601    Uiso  ? N
   C978       1.0     0.333160     0.810865     0.722569    Uiso  ? C
   H688       1.0     0.319039     0.793154     0.731438    Uiso  ? H
   H689       1.0     0.349766     0.877727     0.721065    Uiso  ? H
   H690       1.0     0.463408     0.774478     0.833687    Uiso  ? H
   C979       1.0     0.266102     0.401065     0.298849    Uiso  ? C
   H691       1.0     0.254501     0.381388     0.304651    Uiso  ? H
   C980       1.0     0.273225     0.445858     0.287757    Uiso  ? C
   N61        1.0     0.252988     0.427260     0.298196    Uiso  ? N
   C981       1.0     0.223414     0.435476     0.306036    Uiso  ? C
   H692       1.0     0.216124     0.419086     0.324370    Uiso  ? H
   H693       1.0     0.222365     0.456157     0.317086    Uiso  ? H
   C982       1.0     0.203931     0.435349     0.279980    Uiso  ? C
   C983       1.0     0.190712     0.410973     0.269412    Uiso  ? C
   C984       1.0     0.201872     0.460940     0.263606    Uiso  ? C
   C985       1.0     0.175827     0.410281     0.243307    Uiso  ? C
   H694       1.0     0.191809     0.391165     0.281247    Uiso  ? H
   C986       1.0     0.186286     0.460785     0.237749    Uiso  ? C
   H695       1.0     0.213634     0.479394     0.270725    Uiso  ? H
   C987       1.0     0.173735     0.435223     0.226074    Uiso  ? C
   H696       1.0     0.163387     0.391543     0.236333    Uiso  ? H
   H697       1.0     0.185209     0.480745     0.225062    Uiso  ? H
   C988       1.0     0.156544     0.436732     0.197290    Uiso  ? C
   H698       1.0     0.132901     0.435710     0.202689    Uiso  ? H
   H699       1.0     0.163012     0.456358     0.184445    Uiso  ? H
   N62        1.0     0.163121     0.412327     0.177716    Uiso  ? N
   C989       1.0     0.148540     0.387256     0.173643    Uiso  ? C
   N63        1.0     0.159485     0.369576     0.152367    Uiso  ? N
   C990       1.0     0.181885     0.384926     0.141320    Uiso  ? C
   H700       1.0     0.192772     0.378717     0.121651    Uiso  ? H
   C991       1.0     0.183519     0.410344     0.156140    Uiso  ? C
   H701       1.0     0.198072     0.426795     0.149353    Uiso  ? H
   N64        1.0     0.299054     0.432213     0.282075    Uiso  ? N
   C992       1.0     0.295162     0.404786     0.290924    Uiso  ? C
   H702       1.0     0.308526     0.385917     0.287458    Uiso  ? H
   H703       1.0     0.270083     0.468147     0.281232    Uiso  ? H
   H704       1.0     0.128255     0.383019     0.183814    Uiso  ? H
   C993       1.0     0.508900     0.669632     0.745762    Uiso  ? C
   H705       1.0     0.492060     0.658921     0.757400    Uiso  ? H
   C994       1.0     0.547718     0.692430     0.735004    Uiso  ? C
   N65        1.0     0.537576     0.671939     0.753222    Uiso  ? N
   C995       1.0     0.551721     0.659729     0.778492    Uiso  ? C
   H706       1.0     0.536583     0.643858     0.789747    Uiso  ? H
   H707       1.0     0.572173     0.647147     0.771342    Uiso  ? H
   C996       1.0     0.560450     0.682744     0.801005    Uiso  ? C
   C997       1.0     0.588559     0.692557     0.800335    Uiso  ? C
   C998       1.0     0.537941     0.699508     0.813001    Uiso  ? C
   C999       1.0     0.596737     0.716533     0.817334    Uiso  ? C
   H708       1.0     0.604726     0.683895     0.787122    Uiso  ? H
   C1000      1.0     0.544855     0.726500     0.826380    Uiso  ? C
   H709       1.0     0.515751     0.692371     0.812106    Uiso  ? H
   C1001      1.0     0.574350     0.735627     0.827225    Uiso  ? C
   H710       1.0     0.618742     0.723493     0.817686    Uiso  ? H
   H711       1.0     0.527814     0.740219     0.834078    Uiso  ? H
   C1002      1.0     0.583475     0.763115     0.841831    Uiso  ? C
   H712       1.0     0.562267     0.777083     0.844539    Uiso  ? H
   H713       1.0     0.591319     0.755386     0.863355    Uiso  ? H
   N66        1.0     0.605311     0.779448     0.824711    Uiso  ? N
   C1003      1.0     0.632566     0.783473     0.834156    Uiso  ? C
   N67        1.0     0.646671     0.804102     0.818487    Uiso  ? N
   C1004      1.0     0.628967     0.811422     0.796786    Uiso  ? C
   H714       1.0     0.631921     0.827437     0.780053    Uiso  ? H
   C1005      1.0     0.602832     0.796421     0.800352    Uiso  ? C
   H715       1.0     0.583413     0.797026     0.787205    Uiso  ? H
   N68        1.0     0.526960     0.702834     0.715730    Uiso  ? N
   C1006      1.0     0.502429     0.688390     0.723056    Uiso  ? C
   H716       1.0     0.481453     0.690720     0.714105    Uiso  ? H
   H717       1.0     0.570090     0.699750     0.735542    Uiso  ? H
   H718       1.0     0.640054     0.775607     0.854929    Uiso  ? H
   C1007      1.0     0.214678     0.298368     0.656796    Uiso  ? C
   H719       1.0     0.232501     0.306623     0.644214    Uiso  ? H
   C1008      1.0     0.172936     0.283439     0.669095    Uiso  ? C
   N69        1.0     0.187397     0.298216     0.647682    Uiso  ? N
   C1009      1.0     0.173901     0.304610     0.619639    Uiso  ? C
   H720       1.0     0.152918     0.314931     0.622898    Uiso  ? H
   H721       1.0     0.187308     0.322675     0.607504    Uiso  ? H
   C1010      1.0     0.169743     0.277681     0.601037    Uiso  ? C
   C1011      1.0     0.191313     0.270472     0.579882    Uiso  ? C
   C1012      1.0     0.144909     0.260941     0.604079    Uiso  ? C
   C1013      1.0     0.188625     0.243898     0.563885    Uiso  ? C
   H722       1.0     0.207751     0.287137     0.574412    Uiso  ? H
   C1014      1.0     0.142822     0.235065     0.588556    Uiso  ? C
   H723       1.0     0.126916     0.267585     0.620026    Uiso  ? H
   C1015      1.0     0.164785     0.225973     0.569015    Uiso  ? C
   H724       1.0     0.204641     0.238869     0.547259    Uiso  ? H
   H725       1.0     0.123682     0.220406     0.592444    Uiso  ? H
   C1016      1.0     0.163566     0.196576     0.554927    Uiso  ? C
   H726       1.0     0.143659     0.185528     0.561328    Uiso  ? H
   H727       1.0     0.162966     0.198456     0.530116    Uiso  ? H
   N70        1.0     0.187775     0.178280     0.564193    Uiso  ? N
   C1017      1.0     0.213711     0.176257     0.550223    Uiso  ? C
   N71        1.0     0.230579     0.155229     0.561642    Uiso  ? N
   C1018      1.0     0.216176     0.144492     0.584938    Uiso  ? C
   H728       1.0     0.225763     0.127830     0.599192    Uiso  ? H
   C1019      1.0     0.189446     0.160512     0.588401    Uiso  ? C
   H729       1.0     0.171503     0.156852     0.603959    Uiso  ? H
   N72        1.0     0.190404     0.273719     0.691037    Uiso  ? N
   C1020      1.0     0.216735     0.284130     0.683812    Uiso  ? C
   H730       1.0     0.236379     0.277908     0.694994    Uiso  ? H
   H731       1.0     0.150249     0.279530     0.667650    Uiso  ? H
   H732       1.0     0.220537     0.191149     0.532776    Uiso  ? H
   C1021      1.0     0.417138     0.191365     0.164254    Uiso  ? C
   H733       1.0     0.439988     0.187100     0.168684    Uiso  ? H
   C1022      1.0     0.377256     0.210031     0.147301    Uiso  ? C
   N73        1.0     0.406463     0.212881     0.146403    Uiso  ? N
   C1023      1.0     0.424432     0.235694     0.132729    Uiso  ? C
   H734       1.0     0.442135     0.223029     0.122697    Uiso  ? H
   H735       1.0     0.409169     0.245868     0.116515    Uiso  ? H
   C1024      1.0     0.434572     0.257065     0.156167    Uiso  ? C
   C1025      1.0     0.464626     0.259895     0.160087    Uiso  ? C
   C1026      1.0     0.415345     0.273883     0.171700    Uiso  ? C
   C1027      1.0     0.475511     0.281345     0.181195    Uiso  ? C
   H736       1.0     0.480455     0.247401     0.146659    Uiso  ? H
   C1028      1.0     0.425105     0.294055     0.191638    Uiso  ? C
   H737       1.0     0.391641     0.270203     0.169826    Uiso  ? H
   C1029      1.0     0.455022     0.298060     0.196382    Uiso  ? C
   H738       1.0     0.498620     0.283843     0.184807    Uiso  ? H
   H739       1.0     0.411755     0.307781     0.203958    Uiso  ? H
   C1030      1.0     0.465803     0.322352     0.216220    Uiso  ? C
   H740       1.0     0.486568     0.334171     0.209559    Uiso  ? H
   H741       1.0     0.450853     0.340875     0.213499    Uiso  ? H
   N74        1.0     0.464598     0.314612     0.247272    Uiso  ? N
   C1031      1.0     0.470667     0.288185     0.258801    Uiso  ? C
   N75        1.0     0.467791     0.287991     0.288255    Uiso  ? N
   C1032      1.0     0.463041     0.316807     0.294603    Uiso  ? C
   H742       1.0     0.461069     0.325433     0.316807    Uiso  ? H
   C1033      1.0     0.462071     0.333188     0.269771    Uiso  ? C
   H743       1.0     0.462071     0.357300     0.268087    Uiso  ? H
   N76        1.0     0.368532     0.187736     0.164870    Uiso  ? N
   C1034      1.0     0.393688     0.176085     0.174766    Uiso  ? C
   H744       1.0     0.394500     0.157873     0.189673    Uiso  ? H
   H745       1.0     0.361696     0.225416     0.138927    Uiso  ? H
   H746       1.0     0.475958     0.269723     0.245643    Uiso  ? H
   C1035      1.0     0.814582     0.848192     0.407413    Uiso  ? C
   H747       1.0     0.828478     0.847788     0.389689    Uiso  ? H
   C1036      1.0     0.793089     0.841136     0.449101    Uiso  ? C
   N77        1.0     0.817236     0.834875     0.433082    Uiso  ? N
   C1037      1.0     0.840110     0.815677     0.441833    Uiso  ? C
   H748       1.0     0.861492     0.826611     0.437275    Uiso  ? H
   H749       1.0     0.839745     0.815360     0.466441    Uiso  ? H
   C1038      1.0     0.837102     0.788245     0.424742    Uiso  ? C
   C1039      1.0     0.809204     0.774404     0.421506    Uiso  ? C
   C1040      1.0     0.860072     0.776181     0.409001    Uiso  ? C
   C1041      1.0     0.807509     0.748354     0.408285    Uiso  ? C
   H750       1.0     0.789485     0.782370     0.431041    Uiso  ? H
   C1042      1.0     0.857227     0.748972     0.394793    Uiso  ? C
   H751       1.0     0.881081     0.787096     0.407459    Uiso  ? H
   C1043      1.0     0.830619     0.734015     0.395297    Uiso  ? C
   H752       1.0     0.785170     0.737123     0.409104    Uiso  ? H
   H753       1.0     0.874224     0.739084     0.381866    Uiso  ? H
   C1044      1.0     0.825893     0.704500     0.379573    Uiso  ? C
   H754       1.0     0.844796     0.689873     0.380578    Uiso  ? H
   H755       1.0     0.808358     0.692626     0.389244    Uiso  ? H
   N78        1.0     0.819422     0.707783     0.348106    Uiso  ? N
   C1045      1.0     0.831510     0.726813     0.329582    Uiso  ? C
   N79        1.0     0.822348     0.722965     0.301531    Uiso  ? N
   C1046      1.0     0.804045     0.700266     0.303114    Uiso  ? C
   H756       1.0     0.792141     0.691205     0.284398    Uiso  ? H
   C1047      1.0     0.803429     0.690032     0.331364    Uiso  ? C
   H757       1.0     0.791056     0.669986     0.338017    Uiso  ? H
   N80        1.0     0.775070     0.858255     0.433552    Uiso  ? N
   C1048      1.0     0.788417     0.862518     0.407726    Uiso  ? C
   H758       1.0     0.778529     0.876855     0.390342    Uiso  ? H
   H759       1.0     0.788177     0.832781     0.470531    Uiso  ? H
   H760       1.0     0.845873     0.745636     0.335494    Uiso  ? H
   C1049      1.0     0.826456     0.470479     0.822918    Uiso  ? C
   H761       1.0     0.820861     0.478758     0.843512    Uiso  ? H
   C1050      1.0     0.832551     0.439999     0.788444    Uiso  ? C
   N81        1.0     0.823663     0.442135     0.816522    Uiso  ? N
   C1051      1.0     0.815393     0.418276     0.836146    Uiso  ? C
   H762       1.0     0.831230     0.400569     0.831324    Uiso  ? H
   H763       1.0     0.817124     0.424292     0.859594    Uiso  ? H
   C1052      1.0     0.785286     0.405671     0.828957    Uiso  ? C
   C1053      1.0     0.760169     0.412731     0.846377    Uiso  ? C
   C1054      1.0     0.781407     0.388857     0.803373    Uiso  ? C
   C1055      1.0     0.732379     0.402537     0.838830    Uiso  ? C
   H764       1.0     0.762082     0.428136     0.864591    Uiso  ? H
   C1056      1.0     0.753421     0.379187     0.795742    Uiso  ? C
   H765       1.0     0.801505     0.381222     0.792017    Uiso  ? H
   C1057      1.0     0.728472     0.386544     0.813397    Uiso  ? C
   H766       1.0     0.712192     0.407557     0.850251    Uiso  ? H
   H767       1.0     0.753128     0.365520     0.776690    Uiso  ? H
   C1058      1.0     0.699311     0.371939     0.807649    Uiso  ? C
   H768       1.0     0.681814     0.377787     0.823152    Uiso  ? H
   H769       1.0     0.692246     0.378730     0.784460    Uiso  ? H
   N82        1.0     0.702144     0.338877     0.806950    Uiso  ? N
   C1059      1.0     0.722157     0.321858     0.821119    Uiso  ? C
   N83        1.0     0.722899     0.294036     0.812704    Uiso  ? N
   C1060      1.0     0.703926     0.293472     0.790870    Uiso  ? C
   H770       1.0     0.702871     0.276172     0.775061    Uiso  ? H
   C1061      1.0     0.691395     0.321384     0.786336    Uiso  ? C
   H771       1.0     0.678894     0.330578     0.768929    Uiso  ? H
   N84        1.0     0.839308     0.466581     0.777184    Uiso  ? N
   C1062      1.0     0.835814     0.486251     0.798618    Uiso  ? C
   H772       1.0     0.839083     0.508909     0.795631    Uiso  ? H
   H773       1.0     0.835170     0.419628     0.775554    Uiso  ? H
   H774       1.0     0.737059     0.329032     0.837731    Uiso  ? H
   C1063      1.0     0.837485     0.801905     0.594634    Uiso  ? C
   H775       1.0     0.834237     0.786122     0.577423    Uiso  ? H
   C1064      1.0     0.833134     0.840424     0.619687    Uiso  ? C
   N85        1.0     0.826454     0.828786     0.594189    Uiso  ? N
   C1065      1.0     0.809059     0.843615     0.571839    Uiso  ? C
   H776       1.0     0.805493     0.867253     0.577268    Uiso  ? H
   H777       1.0     0.822580     0.843630     0.551826    Uiso  ? H
   C1066      1.0     0.778090     0.827773     0.566272    Uiso  ? C
   C1067      1.0     0.768387     0.822853     0.537862    Uiso  ? C
   C1068      1.0     0.759903     0.819081     0.589786    Uiso  ? C
   C1069      1.0     0.741045     0.808061     0.533281    Uiso  ? C
   H778       1.0     0.782390     0.828267     0.519926    Uiso  ? H
   C1070      1.0     0.734939     0.803779     0.584953    Uiso  ? C
   H779       1.0     0.766205     0.822704     0.611935    Uiso  ? H
   C1071      1.0     0.724395     0.799031     0.556622    Uiso  ? C
   H780       1.0     0.732115     0.805563     0.512184    Uiso  ? H
   H781       1.0     0.723212     0.794336     0.603765    Uiso  ? H
   C1072      1.0     0.695474     0.784947     0.553647    Uiso  ? C
   H782       1.0     0.680960     0.792820     0.571230    Uiso  ? H
   H783       1.0     0.685669     0.793338     0.533143    Uiso  ? H
   N86        1.0     0.697414     0.752917     0.555724    Uiso  ? N
   C1073      1.0     0.719318     0.735347     0.546917    Uiso  ? C
   N87        1.0     0.711801     0.706562     0.549933    Uiso  ? N
   C1074      1.0     0.685933     0.706636     0.560609    Uiso  ? C
   H784       1.0     0.674066     0.686695     0.566091    Uiso  ? H
   C1075      1.0     0.676512     0.734935     0.564505    Uiso  ? C
   H785       1.0     0.654175     0.739245     0.570330    Uiso  ? H
   N88        1.0     0.849024     0.821540     0.636130    Uiso  ? N
   C1076      1.0     0.852756     0.797941     0.619934    Uiso  ? C
   H786       1.0     0.865973     0.778437     0.627903    Uiso  ? H
   H787       1.0     0.826089     0.861961     0.627993    Uiso  ? H
   H788       1.0     0.739042     0.741191     0.537753    Uiso  ? H
   C1077      1.0     0.163676     0.594625     0.201780    Uiso  ? C
   H789       1.0     0.162509     0.613629     0.189620    Uiso  ? H
   C1078      1.0     0.175371     0.552164     0.216661    Uiso  ? C
   N89        1.0     0.176762     0.569627     0.192898    Uiso  ? N
   C1079      1.0     0.194449     0.564639     0.167651    Uiso  ? C
   H790       1.0     0.201044     0.540666     0.165148    Uiso  ? H
   H791       1.0     0.182353     0.571513     0.146608    Uiso  ? H
   C1080      1.0     0.223173     0.581184     0.169457    Uiso  ? C
   C1081      1.0     0.233894     0.600723     0.146786    Uiso  ? C
   C1082      1.0     0.242324     0.577102     0.193353    Uiso  ? C
   C1083      1.0     0.259841     0.616803     0.149847    Uiso  ? C
   H792       1.0     0.223296     0.603577     0.126388    Uiso  ? H
   C1084      1.0     0.269723     0.592424     0.196681    Uiso  ? C
   H793       1.0     0.236202     0.562619     0.209057    Uiso  ? H
   C1085      1.0     0.278251     0.611998     0.174235    Uiso  ? C
   H794       1.0     0.265774     0.631557     0.132966    Uiso  ? H
   H795       1.0     0.284247     0.588838     0.216058    Uiso  ? H
   C1086      1.0     0.305119     0.630683     0.176238    Uiso  ? C
   H796       1.0     0.318543     0.622184     0.194137    Uiso  ? H
   H797       1.0     0.315656     0.631240     0.154076    Uiso  ? H
   N90        1.0     0.296350     0.660452     0.184132    Uiso  ? N
   C1087      1.0     0.283463     0.680589     0.167391    Uiso  ? C
   N91        1.0     0.275709     0.703913     0.183182    Uiso  ? N
   C1088      1.0     0.287571     0.699796     0.210431    Uiso  ? C
   H798       1.0     0.282765     0.714839     0.229035    Uiso  ? H
   C1089      1.0     0.298912     0.671867     0.211046    Uiso  ? C
   H799       1.0     0.308115     0.658792     0.228985    Uiso  ? H
   N92        1.0     0.161581     0.565303     0.238948    Uiso  ? N
   C1090      1.0     0.154646     0.592232     0.229636    Uiso  ? C
   H800       1.0     0.141822     0.609631     0.242164    Uiso  ? H
   H801       1.0     0.183495     0.530994     0.217884    Uiso  ? H
   H802       1.0     0.276960     0.676634     0.144197    Uiso  ? H
   C1091      1.0     0.332255     0.281941     0.428330    Uiso  ? C
   H803       1.0     0.350971     0.279541     0.414635    Uiso  ? H
   C1092      1.0     0.289567     0.275396     0.447085    Uiso  ? C
   N93        1.0     0.311779     0.261273     0.433379    Uiso  ? N
   C1093      1.0     0.312673     0.229380     0.427653    Uiso  ? C
   H804       1.0     0.325979     0.225414     0.409272    Uiso  ? H
   H805       1.0     0.323913     0.221328     0.448983    Uiso  ? H
   C1094      1.0     0.282024     0.217397     0.423546    Uiso  ? C
   C1095      1.0     0.265912     0.206639     0.447144    Uiso  ? C
   C1096      1.0     0.265864     0.225006     0.398339    Uiso  ? C
   C1097      1.0     0.236248     0.203331     0.447328    Uiso  ? C
   H806       1.0     0.275794     0.201418     0.466782    Uiso  ? H
   C1098      1.0     0.234855     0.221033     0.396804    Uiso  ? C
   H807       1.0     0.275626     0.235846     0.381113    Uiso  ? H
   C1099      1.0     0.219675     0.211588     0.422329    Uiso  ? C
   H808       1.0     0.225259     0.193416     0.466308    Uiso  ? H
   H809       1.0     0.223979     0.230350     0.377348    Uiso  ? H
   C1100      1.0     0.186591     0.210942     0.424196    Uiso  ? C
   H810       1.0     0.178057     0.206792     0.446291    Uiso  ? H
   H811       1.0     0.178422     0.232361     0.418282    Uiso  ? H
   N94        1.0     0.174908     0.189634     0.403338    Uiso  ? N
   C1101      1.0     0.172431     0.194089     0.374500    Uiso  ? C
   N95        1.0     0.161815     0.170728     0.361901    Uiso  ? N
   C1102      1.0     0.157589     0.150754     0.382849    Uiso  ? C
   H812       1.0     0.145942     0.131109     0.382035    Uiso  ? H
   C1103      1.0     0.166285     0.162397     0.408994    Uiso  ? C
   H813       1.0     0.166278     0.151670     0.430263    Uiso  ? H
   N96        1.0     0.293326     0.303498     0.449531    Uiso  ? N
   C1104      1.0     0.320635     0.308137     0.438330    Uiso  ? C
   H814       1.0     0.330648     0.329312     0.439440    Uiso  ? H
   H815       1.0     0.270140     0.264927     0.454366    Uiso  ? H
   H816       1.0     0.180038     0.212448     0.363616    Uiso  ? H
