_chemical_name_common                  ' Atoms. Timestep: 0'
_cell_length_a                         49.249527
_cell_length_b                         49.249527
_cell_length_c                         49.249527
_cell_angle_alpha                      90.000000
_cell_angle_beta                       90.000000
_cell_angle_gamma                      90.000000
_cell_volume                           1.000000
_space_group_name_H-M_alt              'P 1'
_space_group_IT_number                 1

loop_
_space_group_symop_operation_xyz
   'x, y, z'

loop_
   _atom_site_label
   _atom_site_occupancy
   _atom_site_fract_x
   _atom_site_fract_y
   _atom_site_fract_z
   _atom_site_adp_type
   _atom_site_U_iso_or_equiv
   _atom_site_type_symbol
   C1         1.0     0.895272     0.166962     0.279785    Uiso  ? C
   C2         1.0     0.866014     0.175272     0.283765    Uiso  ? C
   C3         1.0     0.856418     0.186406     0.307608    Uiso  ? C
   H1         1.0     0.869005     0.189990     0.325026    Uiso  ? H
   C4         1.0     0.828759     0.191729     0.311840    Uiso  ? C
   H2         1.0     0.820686     0.199964     0.331917    Uiso  ? H
   C5         1.0     0.810150     0.187124     0.290114    Uiso  ? C
   H3         1.0     0.789411     0.192293     0.291513    Uiso  ? H
   C6         1.0     0.818501     0.175704     0.266075    Uiso  ? C
   C7         1.0     0.847964     0.172696     0.262402    Uiso  ? C
   H4         1.0     0.854282     0.165952     0.241908    Uiso  ? H
   C8         1.0     0.799145     0.169091     0.243569    Uiso  ? C
   C9         1.0     0.125629     0.109840     0.285111    Uiso  ? C
   C10        1.0     0.111585     0.879954     0.292959    Uiso  ? C
   C11        1.0     0.108960     0.873727     0.320074    Uiso  ? C
   H5         1.0     0.114308     0.889030     0.335247    Uiso  ? H
   C12        1.0     0.894319     0.848366     0.327182    Uiso  ? C
   H6         1.0     0.891856     0.845539     0.348606    Uiso  ? H
   C13        1.0     0.886482     0.828201     0.308760    Uiso  ? C
   H7         1.0     0.878108     0.809017     0.316693    Uiso  ? H
   C14        1.0     0.891012     0.834835     0.280116    Uiso  ? C
   C15        1.0     0.105076     0.860463     0.272912    Uiso  ? C
   H8         1.0     0.108793     0.864723     0.251257    Uiso  ? H
   C16        1.0     0.880409     0.816368     0.258215    Uiso  ? C
   C17        1.0     0.200148     0.149895     0.265915    Uiso  ? C
   C18        1.0     0.229537     0.149882     0.257681    Uiso  ? C
   C19        1.0     0.250886     0.148580     0.278552    Uiso  ? C
   H9         1.0     0.244999     0.146934     0.299101    Uiso  ? H
   C20        1.0     0.278236     0.152436     0.271033    Uiso  ? C
   H10        1.0     0.294305     0.151336     0.286814    Uiso  ? H
   C21        1.0     0.284586     0.158401     0.244170    Uiso  ? C
   H11        1.0     0.306151     0.160169     0.239719    Uiso  ? H
   C22        1.0     0.263700     0.159670     0.223256    Uiso  ? C
   C23        1.0     0.236149     0.153415     0.230840    Uiso  ? C
   H12        1.0     0.221529     0.148400     0.216734    Uiso  ? H
   C24        1.0     0.272831     0.160442     0.195599    Uiso  ? C
   C25        1.0     0.143226     0.207434     0.254627    Uiso  ? C
   C26        1.0     0.138527     0.236397     0.247929    Uiso  ? C
   C27        1.0     0.132950     0.255844     0.268215    Uiso  ? C
   H13        1.0     0.132542     0.251798     0.289365    Uiso  ? H
   C28        1.0     0.128558     0.282819     0.260621    Uiso  ? C
   H14        1.0     0.128331     0.298290     0.276093    Uiso  ? H
   C29        1.0     0.129872     0.290990     0.234000    Uiso  ? C
   H15        1.0     0.128845     0.311863     0.229685    Uiso  ? H
   C30        1.0     0.135238     0.271430     0.213510    Uiso  ? C
   C31        1.0     0.138825     0.244478     0.220168    Uiso  ? C
   H16        1.0     0.142672     0.230427     0.204282    Uiso  ? H
   C32        1.0     0.140805     0.282226     0.185497    Uiso  ? C
   C33        1.0     0.733177     0.125057     0.176412    Uiso  ? C
   C34        1.0     0.715168     0.107307     0.158943    Uiso  ? C
   C35        1.0     0.691706     0.889310     0.170439    Uiso  ? C
   H17        1.0     0.685917     0.892750     0.190941    Uiso  ? H
   C36        1.0     0.677846     0.869201     0.155479    Uiso  ? C
   H18        1.0     0.663091     0.857631     0.165912    Uiso  ? H
   C37        1.0     0.685489     0.864092     0.129121    Uiso  ? C
   H19        1.0     0.673497     0.850299     0.116655    Uiso  ? H
   C38        1.0     0.708226     0.876657     0.117449    Uiso  ? C
   C39        1.0     0.722610     0.896054     0.133130    Uiso  ? C
   H20        1.0     0.740996     0.110325     0.123211    Uiso  ? H
   C40        1.0     0.716446     0.871763     0.890130    Uiso  ? C
   C41        1.0     0.772564     0.112774     0.226680    Uiso  ? C
   C42        1.0     0.773082     0.881613     0.240700    Uiso  ? C
   C43        1.0     0.753622     0.873741     0.260414    Uiso  ? C
   H21        1.0     0.738178     0.888039     0.269054    Uiso  ? H
   C44        1.0     0.758696     0.848993     0.274382    Uiso  ? C
   H22        1.0     0.745351     0.844047     0.291828    Uiso  ? H
   C45        1.0     0.778014     0.830173     0.263819    Uiso  ? C
   H23        1.0     0.779849     0.811734     0.272902    Uiso  ? H
   C46        1.0     0.796201     0.836951     0.243344    Uiso  ? C
   C47        1.0     0.793399     0.863444     0.231323    Uiso  ? C
   H24        1.0     0.806984     0.872098     0.216462    Uiso  ? H
   C48        1.0     0.817939     0.817919     0.235512    Uiso  ? C
   C49        1.0     0.763019     0.204224     0.174427    Uiso  ? C
   C50        1.0     0.757946     0.227755     0.157149    Uiso  ? C
   C51        1.0     0.737948     0.247254     0.164990    Uiso  ? C
   H25        1.0     0.731171     0.247641     0.185044    Uiso  ? H
   C52        1.0     0.730157     0.266328     0.146417    Uiso  ? C
   H26        1.0     0.713769     0.281104     0.151481    Uiso  ? H
   C53        1.0     0.740086     0.266176     0.119672    Uiso  ? C
   H27        1.0     0.731499     0.280011     0.104537    Uiso  ? H
   C54        1.0     0.760182     0.247810     0.112203    Uiso  ? C
   C55        1.0     0.770361     0.229263     0.131270    Uiso  ? C
   H28        1.0     0.783922     0.214467     0.125020    Uiso  ? H
   C56        1.0     0.771496     0.246717     0.886116    Uiso  ? C
   C57        1.0     0.842219     0.753063     0.182586    Uiso  ? C
   C58        1.0     0.836800     0.736556     0.157586    Uiso  ? C
   C59        1.0     0.821697     0.713317     0.159931    Uiso  ? C
   H29        1.0     0.812536     0.706562     0.179678    Uiso  ? H
   C60        1.0     0.814341     0.697587     0.137328    Uiso  ? C
   H30        1.0     0.803386     0.679853     0.139699    Uiso  ? H
   C61        1.0     0.824621     0.705518     0.111490    Uiso  ? C
   H31        1.0     0.821127     0.691258     0.895783    Uiso  ? H
   C62        1.0     0.841040     0.729159     0.108995    Uiso  ? C
   C63        1.0     0.845501     0.745015     0.132168    Uiso  ? C
   H32        1.0     0.858165     0.762552     0.131185    Uiso  ? H
   C64        1.0     0.855785     0.732820     0.884962    Uiso  ? C
   C65        1.0     0.113884     0.766290     0.227135    Uiso  ? C
   C66        1.0     0.143570     0.760089     0.229841    Uiso  ? C
   C67        1.0     0.152582     0.746060     0.251929    Uiso  ? C
   H33        1.0     0.138731     0.744383     0.269856    Uiso  ? H
   C68        1.0     0.179625     0.737425     0.253261    Uiso  ? C
   H34        1.0     0.186846     0.729613     0.271791    Uiso  ? H
   C69        1.0     0.198002     0.744771     0.232844    Uiso  ? C
   H35        1.0     0.219407     0.736669     0.231772    Uiso  ? H
   C70        1.0     0.188136     0.756548     0.208692    Uiso  ? C
   C71        1.0     0.161424     0.766452     0.208322    Uiso  ? C
   H36        1.0     0.153860     0.776887     0.189719    Uiso  ? H
   C72        1.0     0.205007     0.759902     0.183603    Uiso  ? C
   C73        1.0     0.756913     0.210735     0.809477    Uiso  ? C
   C74        1.0     0.737652     0.189476     0.798760    Uiso  ? C
   C75        1.0     0.715546     0.195247     0.780896    Uiso  ? C
   H37        1.0     0.716320     0.213933     0.769050    Uiso  ? H
   C76        1.0     0.695221     0.175303     0.777511    Uiso  ? C
   H38        1.0     0.677747     0.180930     0.765215    Uiso  ? H
   C77        1.0     0.697984     0.150248     0.788259    Uiso  ? C
   H39        1.0     0.682242     0.135343     0.785164    Uiso  ? H
   C78        1.0     0.720801     0.143664     0.802813    Uiso  ? C
   C79        1.0     0.740836     0.162764     0.808149    Uiso  ? C
   H40        1.0     0.757766     0.154923     0.821790    Uiso  ? H
   C80        1.0     0.724222     0.116211     0.813012    Uiso  ? C
   C81        1.0     0.816715     0.283885     0.859843    Uiso  ? C
   C82        1.0     0.834747     0.305817     0.871827    Uiso  ? C
   C83        1.0     0.828605     0.334184     0.867506    Uiso  ? C
   H41        1.0     0.809163     0.341750     0.859051    Uiso  ? H
   C84        1.0     0.846942     0.353837     0.875912    Uiso  ? C
   H42        1.0     0.844851     0.374380     0.870284    Uiso  ? H
   C85        1.0     0.872155     0.347074     0.886928    Uiso  ? C
   H43        1.0     0.885040     0.364114     0.893299    Uiso  ? H
   C86        1.0     0.877994     0.320123     0.894126    Uiso  ? C
   C87        1.0     0.858989     0.299646     0.887651    Uiso  ? C
   H44        1.0     0.862388     0.278848     0.891774    Uiso  ? H
   C88        1.0     0.106429     0.312763     0.108295    Uiso  ? C
   C89        1.0     0.202995     0.285826     0.135486    Uiso  ? C
   C90        1.0     0.232218     0.279002     0.133279    Uiso  ? C
   C91        1.0     0.253198     0.299325     0.132323    Uiso  ? C
   H45        1.0     0.247454     0.321695     0.132672    Uiso  ? H
   C92        1.0     0.280214     0.293116     0.132381    Uiso  ? C
   H46        1.0     0.295664     0.309149     0.130246    Uiso  ? H
   C93        1.0     0.287670     0.265507     0.133919    Uiso  ? C
   H47        1.0     0.308919     0.260529     0.134706    Uiso  ? H
   C94        1.0     0.268805     0.245028     0.132989    Uiso  ? C
   C95        1.0     0.240938     0.251237     0.134052    Uiso  ? C
   H48        1.0     0.226140     0.234746     0.134496    Uiso  ? H
   C96        1.0     0.276287     0.216427     0.136132    Uiso  ? C
   O1         1.0     0.105805     0.150303     0.260834    Uiso  ? O
   O2         1.0     0.118034     0.179553     0.293732    Uiso  ? O
   O3         1.0     0.119431     0.120704     0.262514    Uiso  ? O
   O4         1.0     0.140769     0.121806     0.301097    Uiso  ? O
   O5         1.0     0.182992     0.142321     0.248310    Uiso  ? O
   O6         1.0     0.193141     0.161821     0.287953    Uiso  ? O
   O7         1.0     0.145275     0.190375     0.234958    Uiso  ? O
   O8         1.0     0.144351     0.198429     0.279322    Uiso  ? O
   O9         1.0     0.753518     0.135546     0.166212    Uiso  ? O
   O10        1.0     0.727175     0.130327     0.200968    Uiso  ? O
   O11        1.0     0.792014     0.124477     0.214690    Uiso  ? O
   O12        1.0     0.749327     0.123485     0.225851    Uiso  ? O
   O13        1.0     0.807797     0.159744     0.221861    Uiso  ? O
   O14        1.0     0.774318     0.172502     0.247535    Uiso  ? O
   O15        1.0     0.785888     0.192741     0.172867    Uiso  ? O
   O16        1.0     0.744216     0.195099     0.189632    Uiso  ? O
   O17        1.0     0.834290     0.777521     0.183857    Uiso  ? O
   O18        1.0     0.851740     0.744099     0.203908    Uiso  ? O
   O19        1.0     0.105439     0.780032     0.207309    Uiso  ? O
   O20        1.0     0.894051     0.762517     0.247141    Uiso  ? O
   O21        1.0     0.870756     0.825434     0.236174    Uiso  ? O
   O22        1.0     0.879077     0.790871     0.262593    Uiso  ? O
   O23        1.0     0.838737     0.826780     0.222038    Uiso  ? O
   O24        1.0     0.819858     0.793779     0.246485    Uiso  ? O
   O25        1.0     0.773567     0.202975     0.827512    Uiso  ? O
   O26        1.0     0.755538     0.233796     0.800472    Uiso  ? O
   O27        1.0     0.795177     0.239061     0.881226    Uiso  ? O
   O28        1.0     0.757404     0.256917     0.866966    Uiso  ? O
   O29        1.0     0.818103     0.258913     0.868150    Uiso  ? O
   O30        1.0     0.801673     0.289494     0.839157    Uiso  ? O
   O31        1.0     0.829271     0.242663     0.812346    Uiso  ? O
   O32        1.0     0.803326     0.278302     0.805349    Uiso  ? O
   O33        1.0     0.108047     0.287946     0.115333    Uiso  ? O
   O34        1.0     0.125051     0.329114     0.113044    Uiso  ? O
   O35        1.0     0.146184     0.264835     0.167480    Uiso  ? O
   O36        1.0     0.138094     0.307370     0.180487    Uiso  ? O
   O37        1.0     0.186882     0.267487     0.125311    Uiso  ? O
   O38        1.0     0.193074     0.308261     0.145236    Uiso  ? O
   O39        1.0     0.169098     0.279227     0.897066    Uiso  ? O
   O40        1.0     0.159780     0.324844     0.101851    Uiso  ? O
   O41        1.0     0.760044     0.874951     0.803240    Uiso  ? O
   O42        1.0     0.725499     0.846508     0.794663    Uiso  ? O
   O43        1.0     0.765800     0.833369     0.843871    Uiso  ? O
   O44        1.0     0.726486     0.821350     0.826690    Uiso  ? O
   O45        1.0     0.735999     0.885379     0.880406    Uiso  ? O
   O46        1.0     0.701645     0.858132     0.874203    Uiso  ? O
   O47        1.0     0.749081     0.108369     0.816667    Uiso  ? O
   O48        1.0     0.702472     0.895916     0.818594    Uiso  ? O
   O49        1.0     0.143288     0.137866     0.198738    Uiso  ? O
   O50        1.0     0.817884     0.143205     0.153774    Uiso  ? O
   O51        1.0     0.870750     0.820829     0.164181    Uiso  ? O
   O52        1.0     0.830631     0.189758     0.851273    Uiso  ? O
   O53        1.0     0.128183     0.228766     0.114243    Uiso  ? O
   O54        1.0     0.802450     0.877357     0.854676    Uiso  ? O
   Zn1        1.0     0.142664     0.148900     0.238704    Uiso  ? Zn
   Zn2        1.0     0.155747     0.161650     0.303016    Uiso  ? Zn
   Zn3        1.0     0.789636     0.152625     0.182230    Uiso  ? Zn
   Zn4        1.0     0.741236     0.165568     0.220404    Uiso  ? Zn
   Zn5        1.0     0.864368     0.801588     0.200661    Uiso  ? Zn
   Zn6        1.0     0.850772     0.763786     0.242197    Uiso  ? Zn
   Zn7        1.0     0.807460     0.222993     0.844659    Uiso  ? Zn
   Zn8        1.0     0.766878     0.266506     0.827289    Uiso  ? Zn
   Zn9        1.0     0.143061     0.267516     0.124701    Uiso  ? Zn
   Zn10       1.0     0.155889     0.326440     0.145855    Uiso  ? Zn
   Zn11       1.0     0.760846     0.874705     0.846198    Uiso  ? Zn
   Zn12       1.0     0.698474     0.854206     0.829549    Uiso  ? Zn
   C97        1.0     0.124129     0.865710     0.709927    Uiso  ? C
   C98        1.0     0.150468     0.852675     0.706266    Uiso  ? C
   C99        1.0     0.157672     0.837730     0.684099    Uiso  ? C
   H49        1.0     0.143158     0.833996     0.668209    Uiso  ? H
   C100       1.0     0.184146     0.824684     0.681980    Uiso  ? C
   H50        1.0     0.189573     0.812390     0.665007    Uiso  ? H
   C101       1.0     0.202977     0.827929     0.702142    Uiso  ? C
   H51        1.0     0.222303     0.818469     0.701064    Uiso  ? H
   C102       1.0     0.196057     0.843909     0.725078    Uiso  ? C
   C103       1.0     0.170484     0.856561     0.726764    Uiso  ? C
   H52        1.0     0.163719     0.864989     0.747523    Uiso  ? H
   C104       1.0     0.217036     0.849684     0.746386    Uiso  ? C
   C105       1.0     0.882508     0.135778     0.686834    Uiso  ? C
   C106       1.0     0.892155     0.162850     0.681777    Uiso  ? C
   C107       1.0     0.885140     0.176145     0.657041    Uiso  ? C
   H53        1.0     0.873974     0.166169     0.641449    Uiso  ? H
   C108       1.0     0.893940     0.202228     0.651738    Uiso  ? C
   H54        1.0     0.887529     0.211483     0.633705    Uiso  ? H
   C109       1.0     0.112642     0.216999     0.671866    Uiso  ? C
   H55        1.0     0.116068     0.238715     0.667382    Uiso  ? H
   C110       1.0     0.120034     0.204033     0.695811    Uiso  ? C
   C111       1.0     0.112056     0.176950     0.701458    Uiso  ? C
   H56        1.0     0.117612     0.167289     0.720345    Uiso  ? H
   C112       1.0     0.136712     0.219142     0.716012    Uiso  ? C
   C113       1.0     0.819179     0.871944     0.716047    Uiso  ? C
   C114       1.0     0.790913     0.864695     0.723773    Uiso  ? C
   C115       1.0     0.772371     0.854671     0.704299    Uiso  ? C
   H57        1.0     0.781350     0.849312     0.685716    Uiso  ? H
   C116       1.0     0.747234     0.844605     0.711466    Uiso  ? C
   H58        1.0     0.736320     0.831219     0.698309    Uiso  ? H
   C117       1.0     0.737904     0.847958     0.738748    Uiso  ? C
   H59        1.0     0.719505     0.836944     0.743617    Uiso  ? H
   C118       1.0     0.754594     0.860977     0.758441    Uiso  ? C
   C119       1.0     0.780761     0.868803     0.750480    Uiso  ? C
   H60        1.0     0.793939     0.881477     0.763804    Uiso  ? H
   C120       1.0     0.746119     0.861381     0.787268    Uiso  ? C
   C121       1.0     0.870333     0.829805     0.718790    Uiso  ? C
   C122       1.0     0.869576     0.800680     0.725212    Uiso  ? C
   C123       1.0     0.869034     0.781823     0.704575    Uiso  ? C
   H61        1.0     0.862370     0.788185     0.686008    Uiso  ? H
   C124       1.0     0.869747     0.753965     0.710827    Uiso  ? C
   H62        1.0     0.868520     0.739305     0.693072    Uiso  ? H
   C125       1.0     0.872218     0.744213     0.737353    Uiso  ? C
   H63        1.0     0.873933     0.722608     0.741046    Uiso  ? H
   C126       1.0     0.872957     0.763049     0.759424    Uiso  ? C
   C127       1.0     0.869328     0.791115     0.753284    Uiso  ? C
   H64        1.0     0.869621     0.805992     0.768421    Uiso  ? H
   C128       1.0     0.877156     0.752018     0.787065    Uiso  ? C
   C129       1.0     0.287284     0.887635     0.815528    Uiso  ? C
   C130       1.0     0.307006     0.102850     0.836068    Uiso  ? C
   C131       1.0     0.333451     0.890703     0.836937    Uiso  ? C
   H65        1.0     0.342621     0.877408     0.822089    Uiso  ? H
   C132       1.0     0.351226     0.102594     0.859492    Uiso  ? C
   H66        1.0     0.370617     0.888667     0.861431    Uiso  ? H
   C133       1.0     0.340570     0.117822     0.880509    Uiso  ? C
   H67        1.0     0.352401     0.124718     0.897683    Uiso  ? H
   C134       1.0     0.313037     0.125857     0.879689    Uiso  ? C
   C135       1.0     0.297304     0.119215     0.856830    Uiso  ? C
   H68        1.0     0.276391     0.123618     0.856706    Uiso  ? H
   C136       1.0     0.301930     0.143016     0.100834    Uiso  ? C
   C137       1.0     0.265320     0.118557     0.763507    Uiso  ? C
   C138       1.0     0.265599     0.148146     0.754947    Uiso  ? C
   C139       1.0     0.287601     0.158631     0.740709    Uiso  ? C
   H69        1.0     0.304675     0.146056     0.734006    Uiso  ? H
   C140       1.0     0.286663     0.186616     0.732810    Uiso  ? C
   H70        1.0     0.304933     0.194985     0.724213    Uiso  ? H
   C141       1.0     0.262766     0.201710     0.738392    Uiso  ? C
   H71        1.0     0.264092     0.220961     0.730378    Uiso  ? H
   C142       1.0     0.239809     0.190500     0.750285    Uiso  ? C
   C143       1.0     0.242415     0.163447     0.759028    Uiso  ? C
   H72        1.0     0.224487     0.154235     0.765591    Uiso  ? H
   C144       1.0     0.213425     0.206181     0.753540    Uiso  ? C
   C145       1.0     0.276386     0.823468     0.810121    Uiso  ? C
   C146       1.0     0.287144     0.805645     0.831327    Uiso  ? C
   C147       1.0     0.314722     0.799852     0.831449    Uiso  ? C
   H73        1.0     0.328549     0.804560     0.814545    Uiso  ? H
   C148       1.0     0.325908     0.785856     0.853098    Uiso  ? C
   H74        1.0     0.346757     0.781592     0.854328    Uiso  ? H
   C149       1.0     0.311012     0.779557     0.875500    Uiso  ? C
   H75        1.0     0.321045     0.770558     0.892471    Uiso  ? H
   C150       1.0     0.282200     0.785395     0.875346    Uiso  ? C
   C151       1.0     0.270127     0.798765     0.853334    Uiso  ? C
   H76        1.0     0.247747     0.802792     0.851867    Uiso  ? H
   C152       1.0     0.264155     0.778345     0.899829    Uiso  ? C
   C153       1.0     0.183490     0.276427     0.791607    Uiso  ? C
   C154       1.0     0.187034     0.296925     0.814052    Uiso  ? C
   C155       1.0     0.195710     0.322895     0.808015    Uiso  ? C
   H77        1.0     0.202477     0.325918     0.787520    Uiso  ? H
   C156       1.0     0.195797     0.343206     0.828669    Uiso  ? C
   H78        1.0     0.197220     0.364359     0.822454    Uiso  ? H
   C157       1.0     0.186176     0.336617     0.853782    Uiso  ? C
   H79        1.0     0.188246     0.352526     0.869927    Uiso  ? H
   C158       1.0     0.178353     0.309540     0.859910    Uiso  ? C
   C159       1.0     0.178148     0.290312     0.841035    Uiso  ? C
   H80        1.0     0.171911     0.270848     0.847973    Uiso  ? H
   C160       1.0     0.167653     0.303721     0.887890    Uiso  ? C
   C161       1.0     0.122860     0.263079     0.759974    Uiso  ? C
   C162       1.0     0.891298     0.276517     0.761329    Uiso  ? C
   C163       1.0     0.887166     0.302149     0.751054    Uiso  ? C
   H81        1.0     0.107170     0.313514     0.739844    Uiso  ? H
   C164       1.0     0.861921     0.316079     0.756390    Uiso  ? C
   H82        1.0     0.858315     0.336353     0.748949    Uiso  ? H
   C165       1.0     0.841785     0.301989     0.769755    Uiso  ? C
   H83        1.0     0.822146     0.312440     0.774630    Uiso  ? H
   C166       1.0     0.845878     0.276898     0.782005    Uiso  ? C
   C167       1.0     0.871523     0.264720     0.777714    Uiso  ? C
   H84        1.0     0.874918     0.246746     0.789824    Uiso  ? H
   C168       1.0     0.824639     0.264655     0.799085    Uiso  ? C
   C169       1.0     0.268104     0.811434     0.153852    Uiso  ? C
   C170       1.0     0.288900     0.833988     0.159511    Uiso  ? C
   C171       1.0     0.314829     0.828094     0.168887    Uiso  ? C
   H85        1.0     0.320302     0.807082     0.170970    Uiso  ? H
   C172       1.0     0.332789     0.848333     0.174949    Uiso  ? C
   H86        1.0     0.352903     0.843885     0.182803    Uiso  ? H
   C173       1.0     0.325889     0.875775     0.171370    Uiso  ? C
   H87        1.0     0.341374     0.890413     0.178246    Uiso  ? H
   C174       1.0     0.300194     0.882866     0.160270    Uiso  ? C
   C175       1.0     0.281375     0.860914     0.156067    Uiso  ? C
   H88        1.0     0.260411     0.866801     0.150091    Uiso  ? H
   C176       1.0     0.294651     0.116724     0.156627    Uiso  ? C
   C177       1.0     0.215760     0.738539     0.102882    Uiso  ? C
   C178       1.0     0.200849     0.718237     0.886499    Uiso  ? C
   C179       1.0     0.211722     0.692994     0.879827    Uiso  ? C
   H89        1.0     0.230546     0.685879     0.888382    Uiso  ? H
   C180       1.0     0.195736     0.673897     0.866716    Uiso  ? C
   H90        1.0     0.203807     0.654074     0.866000    Uiso  ? H
   C181       1.0     0.169258     0.680679     0.856678    Uiso  ? C
   H91        1.0     0.158411     0.663576     0.846596    Uiso  ? H
   C182       1.0     0.159022     0.706330     0.861041    Uiso  ? C
   C183       1.0     0.174870     0.725045     0.876948    Uiso  ? C
   H92        1.0     0.166854     0.744424     0.882497    Uiso  ? H
   C184       1.0     0.131323     0.713185     0.851403    Uiso  ? C
   C185       1.0     0.827435     0.746716     0.829985    Uiso  ? C
   C186       1.0     0.798320     0.754272     0.829012    Uiso  ? C
   C187       1.0     0.779331     0.734036     0.824923    Uiso  ? C
   H93        1.0     0.785928     0.713297     0.822365    Uiso  ? H
   C188       1.0     0.751213     0.739374     0.824003    Uiso  ? C
   H94        1.0     0.736618     0.723392     0.822661    Uiso  ? H
   C189       1.0     0.742629     0.765265     0.826418    Uiso  ? C
   H95        1.0     0.721650     0.768073     0.827423    Uiso  ? H
   C190       1.0     0.760369     0.786968     0.832397    Uiso  ? C
   C191       1.0     0.788651     0.780747     0.833360    Uiso  ? C
   H96        1.0     0.802978     0.796473     0.839758    Uiso  ? H
   C192       1.0     0.749825     0.814871     0.836558    Uiso  ? C
   O55        1.0     0.118273     0.879227     0.731022    Uiso  ? O
   O56        1.0     0.106475     0.861168     0.691023    Uiso  ? O
   O57        1.0     0.877381     0.130175     0.711905    Uiso  ? O
   O58        1.0     0.879765     0.118662     0.668254    Uiso  ? O
   O59        1.0     0.837982     0.870630     0.733653    Uiso  ? O
   O60        1.0     0.824406     0.877763     0.691330    Uiso  ? O
   O61        1.0     0.862142     0.848575     0.735125    Uiso  ? O
   O62        1.0     0.876815     0.836449     0.694640    Uiso  ? O
   O63        1.0     0.263130     0.897406     0.812830    Uiso  ? O
   O64        1.0     0.295217     0.869822     0.799311    Uiso  ? O
   O65        1.0     0.249075     0.111010     0.782506    Uiso  ? O
   O66        1.0     0.278350     0.896774     0.751073    Uiso  ? O
   O67        1.0     0.211235     0.867379     0.763580    Uiso  ? O
   O68        1.0     0.241359     0.841968     0.744662    Uiso  ? O
   O69        1.0     0.251424     0.827602     0.808765    Uiso  ? O
   O70        1.0     0.292973     0.838650     0.796486    Uiso  ? O
   O71        1.0     0.179002     0.252318     0.797317    Uiso  ? O
   O72        1.0     0.178928     0.284986     0.767970    Uiso  ? O
   O73        1.0     0.124368     0.237440     0.763507    Uiso  ? O
   O74        1.0     0.143195     0.275830     0.749962    Uiso  ? O
   O75        1.0     0.136804     0.211533     0.741602    Uiso  ? O
   O76        1.0     0.152757     0.238277     0.709160    Uiso  ? O
   O77        1.0     0.192143     0.193659     0.762488    Uiso  ? O
   O78        1.0     0.213890     0.230898     0.747546    Uiso  ? O
   O79        1.0     0.243213     0.818286     0.147867    Uiso  ? O
   O80        1.0     0.276228     0.786164     0.152201    Uiso  ? O
   O81        1.0     0.238723     0.783289     0.897941    Uiso  ? O
   O82        1.0     0.274163     0.770262     0.121216    Uiso  ? O
   O83        1.0     0.211182     0.763748     0.100534    Uiso  ? O
   O84        1.0     0.230193     0.729551     0.122001    Uiso  ? O
   O85        1.0     0.194000     0.765224     0.160635    Uiso  ? O
   O86        1.0     0.229748     0.757989     0.183924    Uiso  ? O
   O87        1.0     0.125885     0.738458     0.845796    Uiso  ? O
   O88        1.0     0.112294     0.696521     0.847187    Uiso  ? O
   O89        1.0     0.872368     0.768658     0.805481    Uiso  ? O
   O90        1.0     0.881391     0.726939     0.790092    Uiso  ? O
   O91        1.0     0.845458     0.764511     0.828078    Uiso  ? O
   O92        1.0     0.834698     0.723228     0.836846    Uiso  ? O
   O93        1.0     0.868207     0.754714     0.881590    Uiso  ? O
   O94        1.0     0.855716     0.714021     0.866647    Uiso  ? O
   O95        1.0     0.254685     0.166458     0.177308    Uiso  ? O
   O96        1.0     0.297806     0.159254     0.189059    Uiso  ? O
   O97        1.0     0.266155     0.198494     0.120687    Uiso  ? O
   O98        1.0     0.292720     0.209472     0.155576    Uiso  ? O
   O99        1.0     0.277903     0.135800     0.109182    Uiso  ? O
   O100       1.0     0.317075     0.160397     0.112694    Uiso  ? O
   O101       1.0     0.274299     0.124011     0.142372    Uiso  ? O
   O102       1.0     0.311481     0.134335     0.166043    Uiso  ? O
   O103       1.0     0.872264     0.113830     0.771065    Uiso  ? O
   O104       1.0     0.203986     0.872868     0.825548    Uiso  ? O
   O105       1.0     0.145069     0.198579     0.810984    Uiso  ? O
   O106       1.0     0.183409     0.823480     0.126440    Uiso  ? O
   O107       1.0     0.113447     0.799872     0.842263    Uiso  ? O
   O108       1.0     0.217346     0.157438     0.127111    Uiso  ? O
   Zn13       1.0     0.875602     0.891162     0.734581    Uiso  ? Zn
   Zn14       1.0     0.862613     0.874313     0.674887    Uiso  ? Zn
   Zn15       1.0     0.234575     0.868273     0.797410    Uiso  ? Zn
   Zn16       1.0     0.278527     0.856212     0.761865    Uiso  ? Zn
   Zn17       1.0     0.161681     0.219361     0.778112    Uiso  ? Zn
   Zn18       1.0     0.182115     0.257899     0.734161    Uiso  ? Zn
   Zn19       1.0     0.213427     0.792564     0.132407    Uiso  ? Zn
   Zn20       1.0     0.253010     0.749581     0.152498    Uiso  ? Zn
   Zn21       1.0     0.887403     0.762424     0.843577    Uiso  ? Zn
   Zn22       1.0     0.873028     0.704417     0.826635    Uiso  ? Zn
   Zn23       1.0     0.256784     0.162316     0.136576    Uiso  ? Zn
   Zn24       1.0     0.314448     0.174654     0.151744    Uiso  ? Zn
   H97        1.0     0.192631     0.859797     0.832284    Uiso  ? H
   H98        1.0     0.206465     0.889219     0.836357    Uiso  ? H
   H99        1.0     0.835687     0.150678     0.154316    Uiso  ? H
   H100       1.0     0.810239     0.137012     0.136948    Uiso  ? H
   H101       1.0     0.812857     0.862665     0.862335    Uiso  ? H
   H102       1.0     0.812694     0.893956     0.851317    Uiso  ? H
   H103       1.0     0.837689     0.182452     0.833930    Uiso  ? H
   H104       1.0     0.827653     0.181706     0.868580    Uiso  ? H
   H105       1.0     0.210800     0.143815     0.113148    Uiso  ? H
   H106       1.0     0.205123     0.162294     0.141091    Uiso  ? H
   H107       1.0     0.137843     0.119959     0.193924    Uiso  ? H
   H108       1.0     0.138961     0.152620     0.185421    Uiso  ? H
   H109       1.0     0.128300     0.222788     0.895878    Uiso  ? H
   H110       1.0     0.120238     0.216863     0.128652    Uiso  ? H
   H111       1.0     0.178408     0.830806     0.144101    Uiso  ? H
   H112       1.0     0.178454     0.831172     0.109765    Uiso  ? H
   H113       1.0     0.874049     0.840023     0.161365    Uiso  ? H
   H114       1.0     0.868051     0.809645     0.148883    Uiso  ? H
   H115       1.0     0.130446     0.806493     0.851441    Uiso  ? H
   H116       1.0     0.105880     0.813172     0.829821    Uiso  ? H
   H117       1.0     0.126268     0.203162     0.817203    Uiso  ? H
   H118       1.0     0.156237     0.186187     0.822145    Uiso  ? H
   H119       1.0     0.856636     0.124013     0.777166    Uiso  ? H
   H120       1.0     0.886662     0.109162     0.783962    Uiso  ? H
   C193       1.0     0.186406     0.336369     0.486140    Uiso  ? C
   C194       1.0     0.163707     0.317092     0.494065    Uiso  ? C
   C195       1.0     0.162355     0.291355     0.483034    Uiso  ? C
   H121       1.0     0.177994     0.282050     0.471046    Uiso  ? H
   C196       1.0     0.139010     0.274078     0.487797    Uiso  ? C
   H122       1.0     0.138103     0.253727     0.478690    Uiso  ? H
   C197       1.0     0.117584     0.282992     0.502715    Uiso  ? C
   H123       1.0     0.893676     0.273171     0.503145    Uiso  ? H
   C198       1.0     0.118146     0.309197     0.514947    Uiso  ? C
   C199       1.0     0.141401     0.326036     0.510646    Uiso  ? C
   H124       1.0     0.142384     0.346804     0.518356    Uiso  ? H
   C200       1.0     0.890632     0.318294     0.531129    Uiso  ? C
   C201       1.0     0.187492     0.359582     0.422198    Uiso  ? C
   C202       1.0     0.167163     0.351196     0.402145    Uiso  ? C
   C203       1.0     0.167930     0.327191     0.386974    Uiso  ? C
   H125       1.0     0.184137     0.312030     0.388549    Uiso  ? H
   C204       1.0     0.145326     0.319382     0.371112    Uiso  ? C
   H126       1.0     0.146820     0.300442     0.359546    Uiso  ? H
   C205       1.0     0.122015     0.337332     0.368519    Uiso  ? C
   H127       1.0     0.105287     0.330726     0.356106    Uiso  ? H
   C206       1.0     0.121796     0.361939     0.382894    Uiso  ? C
   C207       1.0     0.145104     0.369933     0.398046    Uiso  ? C
   H128       1.0     0.145316     0.389974     0.407727    Uiso  ? H
   C208       1.0     0.894277     0.379911     0.380744    Uiso  ? C
   C209       1.0     0.253481     0.404636     0.442231    Uiso  ? C
   C210       1.0     0.272555     0.425513     0.431969    Uiso  ? C
   C211       1.0     0.288439     0.421085     0.408836    Uiso  ? C
   H129       1.0     0.287970     0.401901     0.398574    Uiso  ? H
   C212       1.0     0.307847     0.439586     0.399014    Uiso  ? C
   H130       1.0     0.320767     0.432813     0.381739    Uiso  ? H
   C213       1.0     0.310172     0.464933     0.413772    Uiso  ? C
   H131       1.0     0.323774     0.479751     0.405729    Uiso  ? H
   C214       1.0     0.291885     0.471530     0.434012    Uiso  ? C
   C215       1.0     0.273436     0.451580     0.443309    Uiso  ? C
   H132       1.0     0.258847     0.457223     0.460000    Uiso  ? H
   C216       1.0     0.293631     0.498001     0.448643    Uiso  ? C
   C217       1.0     0.238877     0.361441     0.514618    Uiso  ? C
   C218       1.0     0.249525     0.357803     0.543335    Uiso  ? C
   C219       1.0     0.269168     0.338164     0.550332    Uiso  ? C
   H133       1.0     0.276460     0.324607     0.535481    Uiso  ? H
   C220       1.0     0.281676     0.338783     0.575954    Uiso  ? C
   H134       1.0     0.296387     0.322416     0.580616    Uiso  ? H
   C221       1.0     0.271428     0.357194     0.596281    Uiso  ? C
   H135       1.0     0.279199     0.358631     0.616716    Uiso  ? H
   C222       1.0     0.252784     0.377850     0.588787    Uiso  ? C
   C223       1.0     0.239990     0.377338     0.563083    Uiso  ? C
   H136       1.0     0.225633     0.392552     0.557475    Uiso  ? H
   C224       1.0     0.248670     0.402451     0.607613    Uiso  ? C
   C225       1.0     0.796008     0.351673     0.554064    Uiso  ? C
   C226       1.0     0.767703     0.358889     0.552206    Uiso  ? C
   C227       1.0     0.747556     0.339423     0.559008    Uiso  ? C
   H137       1.0     0.753286     0.319949     0.565777    Uiso  ? H
   C228       1.0     0.720896     0.348538     0.562917    Uiso  ? C
   H138       1.0     0.707426     0.333319     0.571593    Uiso  ? H
   C229       1.0     0.713775     0.375348     0.558395    Uiso  ? C
   H139       1.0     0.692760     0.380770     0.561729    Uiso  ? H
   C230       1.0     0.732789     0.394524     0.549856    Uiso  ? C
   C231       1.0     0.760724     0.386250     0.548458    Uiso  ? C
   H140       1.0     0.776544     0.401523     0.543848    Uiso  ? H
   C232       1.0     0.726951     0.424138     0.550090    Uiso  ? C
   C233       1.0     0.835452     0.328113     0.507259    Uiso  ? C
   C234       1.0     0.827925     0.325161     0.478398    Uiso  ? C
   C235       1.0     0.818796     0.300452     0.467683    Uiso  ? C
   H141       1.0     0.817025     0.281686     0.480877    Uiso  ? H
   C236       1.0     0.820944     0.295457     0.439226    Uiso  ? C
   H142       1.0     0.814828     0.274809     0.433183    Uiso  ? H
   C237       1.0     0.826382     0.316288     0.421218    Uiso  ? C
   H143       1.0     0.822605     0.313258     0.400261    Uiso  ? H
   C238       1.0     0.832372     0.341827     0.431137    Uiso  ? C
   C239       1.0     0.833521     0.346249     0.459533    Uiso  ? C
   H144       1.0     0.840717     0.366822     0.466280    Uiso  ? H
   C240       1.0     0.837576     0.364540     0.412775    Uiso  ? C
   C241       1.0     0.862567     0.342867     0.607591    Uiso  ? C
   C242       1.0     0.871576     0.346993     0.635518    Uiso  ? C
   C243       1.0     0.883818     0.326032     0.651522    Uiso  ? C
   H145       1.0     0.887771     0.307004     0.642119    Uiso  ? H
   C244       1.0     0.894565     0.332160     0.677433    Uiso  ? C
   H146       1.0     0.105398     0.316464     0.688887    Uiso  ? H
   C245       1.0     0.890090     0.357979     0.689214    Uiso  ? C
   H147       1.0     0.103626     0.362343     0.709117    Uiso  ? H
   C246       1.0     0.875338     0.378134     0.674004    Uiso  ? C
   C247       1.0     0.865992     0.371850     0.648288    Uiso  ? C
   H148       1.0     0.852755     0.387527     0.637266    Uiso  ? H
   C248       1.0     0.872149     0.406335     0.684231    Uiso  ? C
   C249       1.0     0.811259     0.441716     0.378769    Uiso  ? C
   C250       1.0     0.788101     0.461692     0.376190    Uiso  ? C
   C251       1.0     0.765752     0.454029     0.362795    Uiso  ? C
   H149       1.0     0.763114     0.433538     0.354655    Uiso  ? H
   C252       1.0     0.744927     0.471564     0.357034    Uiso  ? C
   H150       1.0     0.727045     0.463828     0.347375    Uiso  ? H
   C253       1.0     0.745195     0.498499     0.366649    Uiso  ? C
   H151       1.0     0.728157     0.510984     0.361972    Uiso  ? H
   C254       1.0     0.768629     0.507096     0.381280    Uiso  ? C
   C255       1.0     0.789528     0.488685     0.386336    Uiso  ? C
   H152       1.0     0.808442     0.496775     0.396655    Uiso  ? H
   C256       1.0     0.770850     0.536219     0.390643    Uiso  ? C
   C257       1.0     0.885663     0.434165     0.347952    Uiso  ? C
   C258       1.0     0.104746     0.452187     0.328969    Uiso  ? C
   C259       1.0     0.106417     0.447022     0.300258    Uiso  ? C
   H153       1.0     0.894037     0.428096     0.292264    Uiso  ? H
   C260       1.0     0.121829     0.464807     0.283769    Uiso  ? C
   H154       1.0     0.125456     0.458931     0.262735    Uiso  ? H
   C261       1.0     0.131902     0.489114     0.293988    Uiso  ? C
   H155       1.0     0.142423     0.501128     0.280213    Uiso  ? H
   C262       1.0     0.129773     0.494403     0.321629    Uiso  ? C
   C263       1.0     0.115317     0.476904     0.337731    Uiso  ? C
   H156       1.0     0.112498     0.482452     0.359765    Uiso  ? H
   C264       1.0     0.140058     0.520168     0.334098    Uiso  ? C
   C265       1.0     0.815054     0.468458     0.684036    Uiso  ? C
   C266       1.0     0.786263     0.472143     0.676369    Uiso  ? C
   C267       1.0     0.766271     0.468374     0.696142    Uiso  ? C
   H157       1.0     0.772734     0.464588     0.716481    Uiso  ? H
   C268       1.0     0.739709     0.472667     0.689925    Uiso  ? C
   H158       1.0     0.723449     0.472963     0.706226    Uiso  ? H
   C269       1.0     0.731215     0.475400     0.662164    Uiso  ? C
   H159       1.0     0.710752     0.473694     0.655112    Uiso  ? H
   C270       1.0     0.750890     0.477865     0.641573    Uiso  ? C
   C271       1.0     0.778988     0.478232     0.648515    Uiso  ? C
   H160       1.0     0.796050     0.479573     0.632154    Uiso  ? H
   C272       1.0     0.742626     0.479138     0.612415    Uiso  ? C
   C273       1.0     0.118643     0.445921     0.712745    Uiso  ? C
   C274       1.0     0.147785     0.438799     0.716222    Uiso  ? C
   C275       1.0     0.156098     0.424571     0.739058    Uiso  ? C
   H161       1.0     0.139323     0.417700     0.752248    Uiso  ? H
   C276       1.0     0.182797     0.414006     0.740999    Uiso  ? C
   H162       1.0     0.190889     0.403608     0.758342    Uiso  ? H
   C277       1.0     0.201178     0.418634     0.720211    Uiso  ? C
   H163       1.0     0.220881     0.411137     0.721192    Uiso  ? H
   C278       1.0     0.193153     0.433109     0.695986    Uiso  ? C
   C279       1.0     0.166114     0.441241     0.694047    Uiso  ? C
   H164       1.0     0.160714     0.451113     0.676755    Uiso  ? H
   C280       1.0     0.214313     0.439460     0.675257    Uiso  ? C
   C281       1.0     0.284581     0.476267     0.609152    Uiso  ? C
   C282       1.0     0.303635     0.492860     0.594505    Uiso  ? C
   C283       1.0     0.330078     0.498637     0.606511    Uiso  ? C
   H165       1.0     0.336941     0.489816     0.626304    Uiso  ? H
   C284       1.0     0.346432     0.517752     0.593317    Uiso  ? C
   H166       1.0     0.364473     0.524842     0.604673    Uiso  ? H
   C285       1.0     0.339453     0.529153     0.568425    Uiso  ? C
   H167       1.0     0.354168     0.542010     0.558803    Uiso  ? H
   C286       1.0     0.315089     0.522984     0.555761    Uiso  ? C
   C287       1.0     0.296732     0.505774     0.569168    Uiso  ? C
   H168       1.0     0.275966     0.503065     0.562240    Uiso  ? H
   C288       1.0     0.308409     0.532058     0.527485    Uiso  ? C
   O109       1.0     0.188716     0.359447     0.497021    Uiso  ? O
   O110       1.0     0.199598     0.331358     0.464516    Uiso  ? O
   O111       1.0     0.184009     0.381771     0.435423    Uiso  ? O
   O112       1.0     0.201697     0.340416     0.434755    Uiso  ? O
   O113       1.0     0.241009     0.409003     0.464451    Uiso  ? O
   O114       1.0     0.251974     0.381632     0.430923    Uiso  ? O
   O115       1.0     0.215862     0.374627     0.510260    Uiso  ? O
   O116       1.0     0.251113     0.349324     0.494711    Uiso  ? O
   O117       1.0     0.813389     0.366786     0.543324    Uiso  ? O
   O118       1.0     0.803330     0.328812     0.563781    Uiso  ? O
   O119       1.0     0.835872     0.351151     0.517895    Uiso  ? O
   O120       1.0     0.841308     0.306858     0.521692    Uiso  ? O
   O121       1.0     0.890364     0.343780     0.538011    Uiso  ? O
   O122       1.0     0.871958     0.301437     0.537556    Uiso  ? O
   O123       1.0     0.852108     0.361894     0.593250    Uiso  ? O
   O124       1.0     0.866492     0.319884     0.596724    Uiso  ? O
   O125       1.0     0.833454     0.449132     0.389091    Uiso  ? O
   O126       1.0     0.807961     0.416880     0.371532    Uiso  ? O
   O127       1.0     0.889158     0.435661     0.373400    Uiso  ? O
   O128       1.0     0.867026     0.420244     0.338967    Uiso  ? O
   O129       1.0     0.896709     0.404217     0.390444    Uiso  ? O
   O130       1.0     0.872335     0.371945     0.370766    Uiso  ? O
   O131       1.0     0.845251     0.387732     0.422588    Uiso  ? O
   O132       1.0     0.838146     0.360162     0.387175    Uiso  ? O
   O133       1.0     0.833040     0.483772     0.673484    Uiso  ? O
   O134       1.0     0.821525     0.450429     0.701009    Uiso  ? O
   O135       1.0     0.866916     0.425200     0.667482    Uiso  ? O
   O136       1.0     0.875389     0.412778     0.709275    Uiso  ? O
   O137       1.0     0.111892     0.463601     0.694938    Uiso  ? O
   O138       1.0     0.896305     0.432455     0.725361    Uiso  ? O
   O139       1.0     0.890664     0.492287     0.701637    Uiso  ? O
   O140       1.0     0.866325     0.487457     0.737497    Uiso  ? O
   O141       1.0     0.207846     0.453887     0.654004    Uiso  ? O
   O142       1.0     0.239704     0.432179     0.678099    Uiso  ? O
   O143       1.0     0.224670     0.414510     0.608468    Uiso  ? O
   O144       1.0     0.269341     0.411265     0.620615    Uiso  ? O
   O145       1.0     0.261351     0.472224     0.599642    Uiso  ? O
   O146       1.0     0.287591     0.471552     0.634320    Uiso  ? O
   O147       1.0     0.225852     0.485353     0.647001    Uiso  ? O
   O148       1.0     0.268750     0.481617     0.659222    Uiso  ? O
   O149       1.0     0.738113     0.520994     0.562309    Uiso  ? O
   O150       1.0     0.704715     0.508551     0.589950    Uiso  ? O
   O151       1.0     0.738978     0.512554     0.527123    Uiso  ? O
   O152       1.0     0.698628     0.492754     0.528924    Uiso  ? O
   O153       1.0     0.742854     0.440989     0.538784    Uiso  ? O
   O154       1.0     0.708529     0.433292     0.566015    Uiso  ? O
   O155       1.0     0.760194     0.479690     0.593262    Uiso  ? O
   O156       1.0     0.717014     0.479254     0.606937    Uiso  ? O
   O157       1.0     0.182112     0.429497     0.477251    Uiso  ? O
   O158       1.0     0.869308     0.403032     0.549487    Uiso  ? O
   O159       1.0     0.866498     0.447919     0.439537    Uiso  ? O
   O160       1.0     0.882262     0.475999     0.631772    Uiso  ? O
   O161       1.0     0.194266     0.466642     0.589969    Uiso  ? O
   O162       1.0     0.796716     0.478131     0.544673    Uiso  ? O
   Zn25       1.0     0.201740     0.393109     0.472207    Uiso  ? Zn
   Zn26       1.0     0.240216     0.347754     0.452798    Uiso  ? Zn
   Zn27       1.0     0.856825     0.363791     0.551550    Uiso  ? Zn
   Zn28       1.0     0.840942     0.306937     0.565757    Uiso  ? Zn
   Zn29       1.0     0.861947     0.423383     0.405000    Uiso  ? Zn
   Zn30       1.0     0.838599     0.392029     0.356023    Uiso  ? Zn
   Zn31       1.0     0.872071     0.465983     0.671539    Uiso  ? Zn
   Zn32       1.0     0.855253     0.446372     0.726981    Uiso  ? Zn
   Zn33       1.0     0.225357     0.456415     0.615841    Uiso  ? Zn
   Zn34       1.0     0.273745     0.436344     0.654625    Uiso  ? Zn
   Zn35       1.0     0.754990     0.481355     0.551889    Uiso  ? Zn
   Zn36       1.0     0.695373     0.473430     0.567130    Uiso  ? Zn
   C289       1.0     0.831994     0.690094     0.561838    Uiso  ? C
   C290       1.0     0.849387     0.710815     0.547718    Uiso  ? C
   C291       1.0     0.841815     0.737920     0.547586    Uiso  ? C
   H169       1.0     0.825031     0.741973     0.558734    Uiso  ? H
   C292       1.0     0.858264     0.757801     0.535200    Uiso  ? C
   H170       1.0     0.853190     0.778353     0.536053    Uiso  ? H
   C293       1.0     0.883566     0.749865     0.524496    Uiso  ? C
   H171       1.0     0.102142     0.764861     0.520043    Uiso  ? H
   C294       1.0     0.892252     0.721812     0.523172    Uiso  ? C
   C295       1.0     0.874149     0.703158     0.534567    Uiso  ? C
   H172       1.0     0.877294     0.681670     0.536043    Uiso  ? H
   C296       1.0     0.123779     0.712302     0.516035    Uiso  ? C
   C297       1.0     0.824203     0.655507     0.639141    Uiso  ? C
   C298       1.0     0.838666     0.655195     0.664832    Uiso  ? C
   C299       1.0     0.827846     0.664206     0.689553    Uiso  ? C
   H173       1.0     0.807301     0.670019     0.690902    Uiso  ? H
   C300       1.0     0.843230     0.664090     0.713681    Uiso  ? C
   H174       1.0     0.833324     0.669739     0.732884    Uiso  ? H
   C301       1.0     0.870473     0.658007     0.711846    Uiso  ? C
   H175       1.0     0.882108     0.658699     0.730685    Uiso  ? H
   C302       1.0     0.882435     0.649172     0.686077    Uiso  ? C
   C303       1.0     0.865113     0.646965     0.663336    Uiso  ? C
   H176       1.0     0.874011     0.640977     0.644645    Uiso  ? H
   C304       1.0     0.115382     0.641481     0.683472    Uiso  ? C
   C305       1.0     0.761542     0.619684     0.591516    Uiso  ? C
   C306       1.0     0.738588     0.600788     0.592998    Uiso  ? C
   C307       1.0     0.715422     0.609001     0.607839    Uiso  ? C
   H177       1.0     0.714007     0.630191     0.614013    Uiso  ? H
   C308       1.0     0.693357     0.591998     0.613037    Uiso  ? C
   H178       1.0     0.675942     0.599478     0.624357    Uiso  ? H
   C309       1.0     0.696240     0.564952     0.606470    Uiso  ? C
   H179       1.0     0.679002     0.551721     0.608864    Uiso  ? H
   C310       1.0     0.720005     0.554986     0.592746    Uiso  ? C
   C311       1.0     0.740237     0.574270     0.584616    Uiso  ? C
   H180       1.0     0.758184     0.564731     0.574766    Uiso  ? H
   C312       1.0     0.721020     0.526848     0.581240    Uiso  ? C
   C313       1.0     0.777307     0.660847     0.541858    Uiso  ? C
   C314       1.0     0.764072     0.662204     0.514979    Uiso  ? C
   C315       1.0     0.743662     0.681694     0.510037    Uiso  ? C
   H181       1.0     0.733928     0.693528     0.527005    Uiso  ? H
   C316       1.0     0.730046     0.681453     0.485172    Uiso  ? C
   H182       1.0     0.713830     0.695329     0.480767    Uiso  ? H
   C317       1.0     0.736779     0.661499     0.464704    Uiso  ? C
   H183       1.0     0.723501     0.658600     0.447527    Uiso  ? H
   C318       1.0     0.758617     0.643113     0.469636    Uiso  ? C
   C319       1.0     0.773094     0.644143     0.494615    Uiso  ? C
   H184       1.0     0.790834     0.631950     0.496258    Uiso  ? H
   C320       1.0     0.767209     0.623091     0.448552    Uiso  ? C
   C321       1.0     0.221436     0.676054     0.499379    Uiso  ? C
   C322       1.0     0.248985     0.665517     0.497338    Uiso  ? C
   C323       1.0     0.272238     0.682417     0.499592    Uiso  ? C
   H185       1.0     0.269511     0.702111     0.503840    Uiso  ? H
   C324       1.0     0.298013     0.672713     0.497419    Uiso  ? C
   H186       1.0     0.314803     0.685940     0.502806    Uiso  ? H
   C325       1.0     0.303248     0.645670     0.491249    Uiso  ? C
   H187       1.0     0.322503     0.638344     0.489007    Uiso  ? H
   C326       1.0     0.280624     0.627686     0.488705    Uiso  ? C
   C327       1.0     0.253736     0.637537     0.491685    Uiso  ? C
   H188       1.0     0.237135     0.622697     0.491541    Uiso  ? H
   C328       1.0     0.286795     0.597939     0.484605    Uiso  ? C
   C329       1.0     0.195561     0.694033     0.553556    Uiso  ? C
   C330       1.0     0.204022     0.695097     0.582641    Uiso  ? C
   C331       1.0     0.219740     0.717825     0.592978    Uiso  ? C
   H189       1.0     0.226010     0.734357     0.579290    Uiso  ? H
   C332       1.0     0.226427     0.720166     0.620641    Uiso  ? C
   H190       1.0     0.238520     0.737969     0.628127    Uiso  ? H
   C333       1.0     0.218461     0.700336     0.639021    Uiso  ? C
   H191       1.0     0.222881     0.701095     0.660997    Uiso  ? H
   C334       1.0     0.200372     0.679717     0.630018    Uiso  ? C
   C335       1.0     0.193064     0.677262     0.602582    Uiso  ? C
   H192       1.0     0.179603     0.660200     0.596462    Uiso  ? H
   C336       1.0     0.188154     0.660760     0.648672    Uiso  ? C
   C337       1.0     0.174147     0.676163     0.453545    Uiso  ? C
   C338       1.0     0.172874     0.671444     0.424763    Uiso  ? C
   C339       1.0     0.172984     0.693652     0.407142    Uiso  ? C
   H193       1.0     0.179493     0.713674     0.414202    Uiso  ? H
   C340       1.0     0.170216     0.690679     0.379361    Uiso  ? C
   H194       1.0     0.170211     0.708060     0.365763    Uiso  ? H
   C341       1.0     0.165704     0.664697     0.367443    Uiso  ? C
   H195       1.0     0.163741     0.664925     0.345477    Uiso  ? H
   C342       1.0     0.165647     0.642163     0.383950    Uiso  ? C
   C343       1.0     0.168553     0.645363     0.412751    Uiso  ? C
   H196       1.0     0.165381     0.625964     0.424288    Uiso  ? H
   C344       1.0     0.161476     0.616126     0.369459    Uiso  ? C
   C345       1.0     0.203675     0.582428     0.685937    Uiso  ? C
   C346       1.0     0.223405     0.560519     0.692343    Uiso  ? C
   C347       1.0     0.245371     0.565734     0.709188    Uiso  ? C
   H197       1.0     0.246788     0.584792     0.720055    Uiso  ? H
   C348       1.0     0.267073     0.547616     0.710177    Uiso  ? C
   H198       1.0     0.285288     0.552716     0.722228    Uiso  ? H
   C349       1.0     0.267314     0.524850     0.694199    Uiso  ? C
   H199       1.0     0.285918     0.513199     0.694995    Uiso  ? H
   C350       1.0     0.245846     0.518931     0.676319    Uiso  ? C
   C351       1.0     0.224374     0.537074     0.675555    Uiso  ? C
   H200       1.0     0.207939     0.532682     0.660978    Uiso  ? H
   C352       1.0     0.247251     0.494984     0.658168    Uiso  ? C
   C353       1.0     0.141280     0.587878     0.711771    Uiso  ? C
   C354       1.0     0.123857     0.568698     0.728656    Uiso  ? C
   C355       1.0     0.114756     0.577679     0.754309    Uiso  ? C
   H201       1.0     0.120478     0.597080     0.761901    Uiso  ? H
   C356       1.0     0.894007     0.561313     0.769128    Uiso  ? C
   H202       1.0     0.887440     0.568617     0.787595    Uiso  ? H
   C357       1.0     0.883294     0.536797     0.759063    Uiso  ? C
   H203       1.0     0.870660     0.525652     0.773160    Uiso  ? H
   C358       1.0     0.891948     0.527715     0.734370    Uiso  ? C
   C359       1.0     0.113968     0.544022     0.718376    Uiso  ? C
   H204       1.0     0.119513     0.537591     0.698502    Uiso  ? H
   C360       1.0     0.883318     0.500606     0.724882    Uiso  ? C
   C361       1.0     0.212928     0.573512     0.359526    Uiso  ? C
   C362       1.0     0.238435     0.581263     0.371603    Uiso  ? C
   C363       1.0     0.253828     0.601651     0.359213    Uiso  ? C
   H205       1.0     0.246938     0.611196     0.339968    Uiso  ? H
   C364       1.0     0.280232     0.608148     0.369668    Uiso  ? C
   H206       1.0     0.292052     0.625704     0.360421    Uiso  ? H
   C365       1.0     0.290253     0.596658     0.393648    Uiso  ? C
   H207       1.0     0.308125     0.602999     0.401041    Uiso  ? H
   C366       1.0     0.274305     0.577011     0.406746    Uiso  ? C
   C367       1.0     0.249385     0.568095     0.394968    Uiso  ? C
   H208       1.0     0.237416     0.551455     0.405502    Uiso  ? H
   C368       1.0     0.283615     0.563279     0.432414    Uiso  ? C
   C369       1.0     0.113691     0.597874     0.336421    Uiso  ? C
   C370       1.0     0.883227     0.611411     0.334849    Uiso  ? C
   C371       1.0     0.879728     0.634453     0.318057    Uiso  ? C
   H209       1.0     0.897858     0.641164     0.306285    Uiso  ? H
   C372       1.0     0.855598     0.648374     0.318108    Uiso  ? C
   H210       1.0     0.852554     0.666350     0.305389    Uiso  ? H
   C373       1.0     0.833714     0.640441     0.334208    Uiso  ? C
   H211       1.0     0.816911     0.653060     0.334332    Uiso  ? H
   C374       1.0     0.835984     0.617633     0.350521    Uiso  ? C
   C375       1.0     0.861446     0.603545     0.351501    Uiso  ? C
   H212       1.0     0.865322     0.587880     0.366291    Uiso  ? H
   C376       1.0     0.814964     0.608341     0.369903    Uiso  ? C
   C377       1.0     0.741565     0.568156     0.437979    Uiso  ? C
   C378       1.0     0.720279     0.555435     0.456079    Uiso  ? C
   C379       1.0     0.692508     0.562016     0.453374    Uiso  ? C
   H213       1.0     0.685745     0.574646     0.436901    Uiso  ? H
   C380       1.0     0.673144     0.551187     0.471297    Uiso  ? C
   H214       1.0     0.651470     0.555151     0.472138    Uiso  ? H
   C381       1.0     0.681397     0.536170     0.492504    Uiso  ? C
   H215       1.0     0.664833     0.529947     0.507684    Uiso  ? H
   C382       1.0     0.708007     0.526060     0.494451    Uiso  ? C
   C383       1.0     0.728427     0.536984     0.476432    Uiso  ? C
   H216       1.0     0.751396     0.532552     0.477379    Uiso  ? H
   C384       1.0     0.715193     0.508572     0.517956    Uiso  ? C
   O163       1.0     0.829318     0.665771     0.552878    Uiso  ? O
   O164       1.0     0.816152     0.697908     0.580454    Uiso  ? O
   O165       1.0     0.835634     0.651091     0.616206    Uiso  ? O
   O166       1.0     0.800166     0.664234     0.638489    Uiso  ? O
   O167       1.0     0.786091     0.610349     0.589504    Uiso  ? O
   O168       1.0     0.758424     0.645288     0.591954    Uiso  ? O
   O169       1.0     0.800865     0.650465     0.543115    Uiso  ? O
   O170       1.0     0.765116     0.666441     0.563292    Uiso  ? O
   O171       1.0     0.201352     0.660813     0.493955    Uiso  ? O
   O172       1.0     0.218191     0.700082     0.507011    Uiso  ? O
   O173       1.0     0.180556     0.674908     0.544906    Uiso  ? O
   O174       1.0     0.203903     0.711536     0.536025    Uiso  ? O
   O175       1.0     0.126545     0.688194     0.505141    Uiso  ? O
   O176       1.0     0.144656     0.728107     0.519604    Uiso  ? O
   O177       1.0     0.175940     0.656334     0.469236    Uiso  ? O
   O178       1.0     0.172237     0.701185     0.462254    Uiso  ? O
   O179       1.0     0.181756     0.576804     0.673973    Uiso  ? O
   O180       1.0     0.205066     0.605756     0.696861    Uiso  ? O
   O181       1.0     0.149487     0.578276     0.688410    Uiso  ? O
   O182       1.0     0.146694     0.612747     0.719080    Uiso  ? O
   O183       1.0     0.122496     0.627895     0.662331    Uiso  ? O
   O184       1.0     0.131813     0.643103     0.703210    Uiso  ? O
   O185       1.0     0.188742     0.636161     0.642326    Uiso  ? O
   O186       1.0     0.178712     0.667773     0.671600    Uiso  ? O
   O187       1.0     0.197393     0.557803     0.372653    Uiso  ? O
   O188       1.0     0.202926     0.586660     0.339162    Uiso  ? O
   O189       1.0     0.149398     0.596530     0.381290    Uiso  ? O
   O190       1.0     0.172126     0.612061     0.346261    Uiso  ? O
   O191       1.0     0.119900     0.583411     0.358228    Uiso  ? O
   O192       1.0     0.130970     0.602089     0.317631    Uiso  ? O
   O193       1.0     0.136529     0.524371     0.359008    Uiso  ? O
   O194       1.0     0.151292     0.539370     0.319655    Uiso  ? O
   O195       1.0     0.821588     0.592987     0.389207    Uiso  ? O
   O196       1.0     0.790186     0.614772     0.367270    Uiso  ? O
   O197       1.0     0.789157     0.608027     0.450292    Uiso  ? O
   O198       1.0     0.751989     0.619147     0.427447    Uiso  ? O
   O199       1.0     0.766326     0.562166     0.439179    Uiso  ? O
   O200       1.0     0.733761     0.588510     0.423839    Uiso  ? O
   O201       1.0     0.784897     0.541309     0.411327    Uiso  ? O
   O202       1.0     0.759881     0.555234     0.378086    Uiso  ? O
   O203       1.0     0.271863     0.512923     0.451793    Uiso  ? O
   O204       1.0     0.316241     0.507536     0.455500    Uiso  ? O
   O205       1.0     0.286807     0.523618     0.515659    Uiso  ? O
   O206       1.0     0.324945     0.545878     0.514010    Uiso  ? O
   O207       1.0     0.267554     0.581137     0.487663    Uiso  ? O
   O208       1.0     0.310283     0.589756     0.474944    Uiso  ? O
   O209       1.0     0.269789     0.544286     0.442816    Uiso  ? O
   O210       1.0     0.305418     0.570530     0.444739    Uiso  ? O
   O211       1.0     0.847208     0.601247     0.576098    Uiso  ? O
   O212       1.0     0.145251     0.625946     0.522504    Uiso  ? O
   O213       1.0     0.151671     0.595322     0.615920    Uiso  ? O
   O214       1.0     0.140679     0.526196     0.395039    Uiso  ? O
   O215       1.0     0.839452     0.563583     0.442643    Uiso  ? O
   O216       1.0     0.228609     0.531065     0.498912    Uiso  ? O
   Zn37       1.0     0.820743     0.634514     0.580574    Uiso  ? Zn
   Zn38       1.0     0.784158     0.678874     0.601219    Uiso  ? Zn
   Zn39       1.0     0.160386     0.664630     0.508354    Uiso  ? Zn
   Zn40       1.0     0.180078     0.719459     0.499446    Uiso  ? Zn
   Zn41       1.0     0.159530     0.606869     0.654576    Uiso  ? Zn
   Zn42       1.0     0.176117     0.637434     0.700772    Uiso  ? Zn
   Zn43       1.0     0.155701     0.557817     0.370174    Uiso  ? Zn
   Zn44       1.0     0.166239     0.579592     0.316329    Uiso  ? Zn
   Zn45       1.0     0.804653     0.577634     0.424432    Uiso  ? Zn
   Zn46       1.0     0.754850     0.598544     0.387250    Uiso  ? Zn
   Zn47       1.0     0.266819     0.540046     0.484684    Uiso  ? Zn
   Zn48       1.0     0.325747     0.547642     0.472583    Uiso  ? Zn
   H217       1.0     0.126394     0.624644     0.523645    Uiso  ? H
   H218       1.0     0.156621     0.610991     0.522713    Uiso  ? H
   H219       1.0     0.873793     0.413050     0.565424    Uiso  ? H
   H220       1.0     0.866540     0.415105     0.534405    Uiso  ? H
   H221       1.0     0.801723     0.460821     0.535190    Uiso  ? H
   H222       1.0     0.810081     0.486159     0.557436    Uiso  ? H
   H223       1.0     0.869401     0.479229     0.617421    Uiso  ? H
   H224       1.0     0.105782     0.471834     0.628899    Uiso  ? H
   H225       1.0     0.215819     0.523013     0.487011    Uiso  ? H
   H226       1.0     0.221206     0.539431     0.515438    Uiso  ? H
   H227       1.0     0.187518     0.441891     0.462051    Uiso  ? H
   H228       1.0     0.172579     0.436226     0.493438    Uiso  ? H
   H229       1.0     0.190108     0.455867     0.574697    Uiso  ? H
   H230       1.0     0.184546     0.483485     0.591914    Uiso  ? H
   H231       1.0     0.153622     0.512302     0.401396    Uiso  ? H
   H232       1.0     0.125807     0.530174     0.406503    Uiso  ? H
   H233       1.0     0.868492     0.467597     0.441691    Uiso  ? H
   H234       1.0     0.867627     0.437253     0.454869    Uiso  ? H
   H235       1.0     0.846908     0.549565     0.432257    Uiso  ? H
   H236       1.0     0.844786     0.564251     0.462093    Uiso  ? H
   H237       1.0     0.151271     0.609781     0.603270    Uiso  ? H
   H238       1.0     0.148689     0.576315     0.611059    Uiso  ? H
   H239       1.0     0.854025     0.593496     0.592076    Uiso  ? H
   H240       1.0     0.856617     0.595436     0.560185    Uiso  ? H
   C385       1.0     0.648630     0.776428     0.462126    Uiso  ? C
   C386       1.0     0.637874     0.747914     0.461399    Uiso  ? C
   C387       1.0     0.655641     0.724641     0.462684    Uiso  ? C
   H241       1.0     0.676971     0.728491     0.464830    Uiso  ? H
   C388       1.0     0.643279     0.698616     0.460635    Uiso  ? C
   H242       1.0     0.656465     0.680549     0.461760    Uiso  ? H
   C389       1.0     0.614934     0.695719     0.455380    Uiso  ? C
   H243       1.0     0.606384     0.674831     0.451717    Uiso  ? H
   C390       1.0     0.598574     0.718472     0.457689    Uiso  ? C
   C391       1.0     0.610047     0.744919     0.460400    Uiso  ? C
   H244       1.0     0.596524     0.762619     0.464345    Uiso  ? H
   C392       1.0     0.569203     0.715522     0.453512    Uiso  ? C
   C393       1.0     0.649101     0.835314     0.403652    Uiso  ? C
   C394       1.0     0.638759     0.835036     0.375073    Uiso  ? C
   C395       1.0     0.657511     0.835064     0.353678    Uiso  ? C
   H245       1.0     0.678943     0.833269     0.358829    Uiso  ? H
   C396       1.0     0.649893     0.837909     0.327335    Uiso  ? C
   H246       1.0     0.665696     0.837460     0.311097    Uiso  ? H
   C397       1.0     0.622674     0.839627     0.321050    Uiso  ? C
   H247       1.0     0.618290     0.838993     0.298567    Uiso  ? H
   C398       1.0     0.602189     0.840149     0.340328    Uiso  ? C
   C399       1.0     0.610800     0.837738     0.368689    Uiso  ? C
   H248       1.0     0.597110     0.840260     0.385843    Uiso  ? H
   C400       1.0     0.572893     0.841379     0.333292    Uiso  ? C
   C401       1.0     0.677927     0.876029     0.443740    Uiso  ? C
   C402       1.0     0.687473     0.107943     0.438300    Uiso  ? C
   C403       1.0     0.712551     0.112821     0.427650    Uiso  ? C
   H249       1.0     0.727124     0.891398     0.425145    Uiso  ? H
   C404       1.0     0.719282     0.139954     0.419303    Uiso  ? C
   H250       1.0     0.739041     0.143002     0.409847    Uiso  ? H
   C405       1.0     0.701209     0.161637     0.420824    Uiso  ? C
   H251       1.0     0.705777     0.181562     0.411088    Uiso  ? H
   C406       1.0     0.676047     0.156588     0.431742    Uiso  ? C
   C407       1.0     0.669688     0.129902     0.441395    Uiso  ? C
   H252       1.0     0.650845     0.126486     0.450000    Uiso  ? H
   C408       1.0     0.657816     0.178820     0.436934    Uiso  ? C
   C409       1.0     0.694918     0.840549     0.496230    Uiso  ? C
   C410       1.0     0.708005     0.856246     0.518774    Uiso  ? C
   C411       1.0     0.735063     0.856859     0.522396    Uiso  ? C
   H253       1.0     0.747565     0.842354     0.511296    Uiso  ? H
   C412       1.0     0.744358     0.875662     0.540238    Uiso  ? C
   H254       1.0     0.767112     0.877684     0.543970    Uiso  ? H
   C413       1.0     0.729055     0.891223     0.557609    Uiso  ? C
   H255       1.0     0.737887     0.109694     0.571660    Uiso  ? H
   C414       1.0     0.701034     0.885132     0.557434    Uiso  ? C
   C415       1.0     0.690102     0.867883     0.538492    Uiso  ? C
   H256       1.0     0.668595     0.863400     0.537940    Uiso  ? H
   C416       1.0     0.683410     0.897386     0.579516    Uiso  ? C
   C417       1.0     0.466683     0.696884     0.464073    Uiso  ? C
   C418       1.0     0.440729     0.689274     0.477224    Uiso  ? C
   C419       1.0     0.431141     0.662508     0.478946    Uiso  ? C
   H257       1.0     0.443795     0.645314     0.471815    Uiso  ? H
   C420       1.0     0.405732     0.657450     0.490735    Uiso  ? C
   H258       1.0     0.399121     0.636141     0.490286    Uiso  ? H
   C421       1.0     0.390055     0.677016     0.504073    Uiso  ? C
   H259       1.0     0.370406     0.672543     0.514031    Uiso  ? H
   C422       1.0     0.399177     0.703735     0.502723    Uiso  ? C
   C423       1.0     0.424463     0.709772     0.489817    Uiso  ? C
   H260       1.0     0.431174     0.730050     0.490705    Uiso  ? H
   C424       1.0     0.385322     0.725595     0.518965    Uiso  ? C
   C425       1.0     0.507956     0.716062     0.391680    Uiso  ? C
   C426       1.0     0.509158     0.724255     0.363662    Uiso  ? C
   C427       1.0     0.509930     0.705355     0.342592    Uiso  ? C
   H261       1.0     0.508606     0.682754     0.344679    Uiso  ? H
   C428       1.0     0.508511     0.713778     0.315359    Uiso  ? C
   H262       1.0     0.509495     0.698882     0.299361    Uiso  ? H
   C429       1.0     0.507587     0.741567     0.308991    Uiso  ? C
   H263       1.0     0.506880     0.746692     0.287590    Uiso  ? H
   C430       1.0     0.508048     0.761606     0.329152    Uiso  ? C
   C431       1.0     0.507891     0.752477     0.356257    Uiso  ? C
   H264       1.0     0.507639     0.768320     0.372255    Uiso  ? H
   C432       1.0     0.511392     0.790985     0.322453    Uiso  ? C
   C433       1.0     0.521975     0.696724     0.493287    Uiso  ? C
   C434       1.0     0.528484     0.688998     0.521704    Uiso  ? C
   C435       1.0     0.524086     0.661749     0.529213    Uiso  ? C
   H265       1.0     0.516127     0.647747     0.513842    Uiso  ? H
   C436       1.0     0.528704     0.654323     0.556468    Uiso  ? C
   H266       1.0     0.529524     0.632733     0.561383    Uiso  ? H
   C437       1.0     0.535514     0.673193     0.576852    Uiso  ? C
   H267       1.0     0.537404     0.665875     0.597366    Uiso  ? H
   C438       1.0     0.539514     0.699916     0.569168    Uiso  ? C
   C439       1.0     0.535024     0.708265     0.541932    Uiso  ? C
   H268       1.0     0.537571     0.729108     0.535426    Uiso  ? H
   C440       1.0     0.547019     0.720728     0.587930    Uiso  ? C
   C441       1.0     0.470011     0.834884     0.311649    Uiso  ? C
   C442       1.0     0.440079     0.833267     0.306813    Uiso  ? C
   C443       1.0     0.430055     0.831275     0.279145    Uiso  ? C
   H269       1.0     0.442999     0.829962     0.261212    Uiso  ? H
   C444       1.0     0.402455     0.835440     0.273848    Uiso  ? C
   H270       1.0     0.397041     0.838102     0.252719    Uiso  ? H
   C445       1.0     0.383358     0.839976     0.294723    Uiso  ? C
   H271       1.0     0.363500     0.849556     0.290542    Uiso  ? H
   C446       1.0     0.393182     0.839280     0.321450    Uiso  ? C
   C447       1.0     0.420743     0.834323     0.327733    Uiso  ? C
   H272       1.0     0.426790     0.837615     0.348514    Uiso  ? H
   C448       1.0     0.375242     0.845416     0.342715    Uiso  ? C
   C449       1.0     0.502106     0.890309     0.301403    Uiso  ? C
   C450       1.0     0.491422     0.122345     0.296500    Uiso  ? C
   C451       1.0     0.486340     0.131726     0.270236    Uiso  ? C
   H273       1.0     0.491408     0.118766     0.252363    Uiso  ? H
   C452       1.0     0.475245     0.157222     0.264432    Uiso  ? C
   H274       1.0     0.472593     0.164809     0.243829    Uiso  ? H
   C453       1.0     0.470995     0.174998     0.285752    Uiso  ? C
   H275       1.0     0.463986     0.195653     0.279801    Uiso  ? H
   C454       1.0     0.475166     0.165929     0.312723    Uiso  ? C
   C455       1.0     0.485398     0.139690     0.318210    Uiso  ? C
   H276       1.0     0.491816     0.135947     0.338973    Uiso  ? H
   C456       1.0     0.469649     0.185942     0.334661    Uiso  ? C
   C457       1.0     0.498502     0.747526     0.620671    Uiso  ? C
   C458       1.0     0.470453     0.737029     0.620389    Uiso  ? C
   C459       1.0     0.463012     0.714208     0.637861    Uiso  ? C
   H277       1.0     0.478372     0.707514     0.652109    Uiso  ? H
   C460       1.0     0.436981     0.703956     0.637731    Uiso  ? C
   H278       1.0     0.431409     0.688450     0.650974    Uiso  ? H
   C461       1.0     0.417182     0.714330     0.619394    Uiso  ? C
   H279       1.0     0.398197     0.705891     0.621291    Uiso  ? H
   C462       1.0     0.424739     0.734525     0.599969    Uiso  ? C
   C463       1.0     0.450098     0.747457     0.602775    Uiso  ? C
   H280       1.0     0.455785     0.766708     0.591849    Uiso  ? H
   C464       1.0     0.403890     0.743260     0.581106    Uiso  ? C
   C465       1.0     0.599896     0.780946     0.627867    Uiso  ? C
   C466       1.0     0.624233     0.797283     0.635571    Uiso  ? C
   C467       1.0     0.645470     0.784554     0.650950    Uiso  ? C
   H281       1.0     0.644591     0.764586     0.658140    Uiso  ? H
   C468       1.0     0.668727     0.798501     0.656672    Uiso  ? C
   H282       1.0     0.684650     0.787137     0.667397    Uiso  ? H
   C469       1.0     0.672214     0.825612     0.649366    Uiso  ? C
   H283       1.0     0.690228     0.836431     0.655082    Uiso  ? H
   C470       1.0     0.650240     0.839139     0.636320    Uiso  ? C
   C471       1.0     0.626960     0.824934     0.629705    Uiso  ? C
   H284       1.0     0.610597     0.833917     0.616925    Uiso  ? H
   C472       1.0     0.651604     0.868531     0.628127    Uiso  ? C
   C473       1.0     0.669718     0.162176     0.581300    Uiso  ? C
   C474       1.0     0.679164     0.181074     0.559621    Uiso  ? C
   C475       1.0     0.706945     0.189615     0.558890    Uiso  ? C
   H285       1.0     0.721962     0.184059     0.575110    Uiso  ? H
   C476       1.0     0.717585     0.202439     0.537207    Uiso  ? C
   H286       1.0     0.739707     0.204047     0.537026    Uiso  ? H
   C477       1.0     0.700669     0.214045     0.517414    Uiso  ? C
   H287       1.0     0.710157     0.227897     0.501974    Uiso  ? H
   C478       1.0     0.672794     0.206859     0.517148    Uiso  ? C
   C479       1.0     0.662721     0.189302     0.537272    Uiso  ? C
   H288       1.0     0.642536     0.183389     0.536076    Uiso  ? H
   C480       1.0     0.655832     0.213726     0.492757    Uiso  ? C
   O217       1.0     0.632380     0.796256     0.457687    Uiso  ? O
   O218       1.0     0.673217     0.780654     0.465385    Uiso  ? O
   O219       1.0     0.635714     0.843653     0.425104    Uiso  ? O
   O220       1.0     0.671247     0.822749     0.406730    Uiso  ? O
   O221       1.0     0.653204     0.868916     0.443409    Uiso  ? O
   O222       1.0     0.696817     0.857804     0.446907    Uiso  ? O
   O223       1.0     0.668878     0.838804     0.496644    Uiso  ? O
   O224       1.0     0.706661     0.838504     0.473935    Uiso  ? O
   O225       1.0     0.473093     0.722690     0.462248    Uiso  ? O
   O226       1.0     0.484839     0.679042     0.458522    Uiso  ? O
   O227       1.0     0.513621     0.733461     0.408905    Uiso  ? O
   O228       1.0     0.504141     0.691217     0.399138    Uiso  ? O
   O229       1.0     0.552493     0.734592     0.460660    Uiso  ? O
   O230       1.0     0.560048     0.694911     0.440773    Uiso  ? O
   O231       1.0     0.526090     0.720156     0.485318    Uiso  ? O
   O232       1.0     0.514397     0.677235     0.476859    Uiso  ? O
   O233       1.0     0.479724     0.833426     0.335800    Uiso  ? O
   O234       1.0     0.486587     0.838033     0.291933    Uiso  ? O
   O235       1.0     0.512161     0.885099     0.324340    Uiso  ? O
   O236       1.0     0.500508     0.871574     0.283947    Uiso  ? O
   O237       1.0     0.555609     0.835844     0.352031    Uiso  ? O
   O238       1.0     0.565264     0.846717     0.308679    Uiso  ? O
   O239       1.0     0.507958     0.808869     0.341188    Uiso  ? O
   O240       1.0     0.517932     0.798587     0.298465    Uiso  ? O
   O241       1.0     0.504675     0.770649     0.610913    Uiso  ? O
   O242       1.0     0.517036     0.733508     0.631494    Uiso  ? O
   O243       1.0     0.549881     0.744414     0.579508    Uiso  ? O
   O244       1.0     0.545587     0.716882     0.614007    Uiso  ? O
   O245       1.0     0.580231     0.794920     0.619934    Uiso  ? O
   O246       1.0     0.595338     0.756664     0.635080    Uiso  ? O
   O247       1.0     0.519847     0.794536     0.631806    Uiso  ? O
   O248       1.0     0.538440     0.774101     0.666487    Uiso  ? O
   O249       1.0     0.642682     0.876480     0.604868    Uiso  ? O
   O250       1.0     0.664721     0.884886     0.642854    Uiso  ? O
   O251       1.0     0.657478     0.890567     0.580756    Uiso  ? O
   O252       1.0     0.694571     0.119216     0.596769    Uiso  ? O
   O253       1.0     0.645665     0.153802     0.577743    Uiso  ? O
   O254       1.0     0.684721     0.151415     0.599355    Uiso  ? O
   O255       1.0     0.610851     0.130326     0.634836    Uiso  ? O
   O256       1.0     0.645411     0.152250     0.653910    Uiso  ? O
   O257       1.0     0.362940     0.805397     0.564866    Uiso  ? O
   O258       1.0     0.326107     0.778745     0.565205    Uiso  ? O
   O259       1.0     0.362180     0.781037     0.504920    Uiso  ? O
   O260       1.0     0.335246     0.746180     0.515227    Uiso  ? O
   O261       1.0     0.399244     0.744036     0.529509    Uiso  ? O
   O262       1.0     0.360127     0.724158     0.523235    Uiso  ? O
   O263       1.0     0.411598     0.759200     0.561865    Uiso  ? O
   O264       1.0     0.379070     0.735171     0.582614    Uiso  ? O
   O265       1.0     0.607517     0.850400     0.488609    Uiso  ? O
   O266       1.0     0.500642     0.780530     0.455060    Uiso  ? O
   O267       1.0     0.515830     0.860868     0.387502    Uiso  ? O
   O268       1.0     0.546206     0.804108     0.567150    Uiso  ? O
   O269       1.0     0.595413     0.118315     0.573310    Uiso  ? O
   O270       1.0     0.419673     0.812952     0.530065    Uiso  ? O
   Zn49       1.0     0.640936     0.835422     0.467614    Uiso  ? Zn
   Zn50       1.0     0.691138     0.813044     0.444377    Uiso  ? Zn
   Zn51       1.0     0.509611     0.738554     0.449470    Uiso  ? Zn
   Zn52       1.0     0.522088     0.678586     0.433833    Uiso  ? Zn
   Zn53       1.0     0.517270     0.850884     0.345938    Uiso  ? Zn
   Zn54       1.0     0.528206     0.838506     0.286837    Uiso  ? Zn
   Zn55       1.0     0.545804     0.782455     0.601930    Uiso  ? Zn
   Zn56       1.0     0.557804     0.743697     0.645689    Uiso  ? Zn
   Zn57       1.0     0.630030     0.121518     0.597749    Uiso  ? Zn
   Zn58       1.0     0.677507     0.129277     0.636347    Uiso  ? Zn
   Zn59       1.0     0.386899     0.785557     0.540100    Uiso  ? Zn
   Zn60       1.0     0.343516     0.741004     0.555885    Uiso  ? Zn
   C481       1.0     0.348678     0.200644     0.546926    Uiso  ? C
   C482       1.0     0.358399     0.230195     0.548987    Uiso  ? C
   C483       1.0     0.339390     0.251091     0.549838    Uiso  ? C
   H289       1.0     0.317597     0.244740     0.549913    Uiso  ? H
   C484       1.0     0.347023     0.277924     0.554254    Uiso  ? C
   H290       1.0     0.331175     0.294271     0.554161    Uiso  ? H
   C485       1.0     0.374294     0.284413     0.555509    Uiso  ? C
   H291       1.0     0.379551     0.306091     0.556265    Uiso  ? H
   C486       1.0     0.393914     0.264277     0.552254    Uiso  ? C
   C487       1.0     0.386142     0.237257     0.551014    Uiso  ? C
   H292       1.0     0.400416     0.220023     0.549270    Uiso  ? H
   C488       1.0     0.423631     0.272214     0.553174    Uiso  ? C
   C489       1.0     0.346828     0.157001     0.598111    Uiso  ? C
   C490       1.0     0.357536     0.166464     0.624095    Uiso  ? C
   C491       1.0     0.342785     0.182805     0.642458    Uiso  ? C
   H293       1.0     0.323695     0.191959     0.636982    Uiso  ? H
   C492       1.0     0.353218     0.189354     0.668225    Uiso  ? C
   H294       1.0     0.343185     0.203680     0.680045    Uiso  ? H
   C493       1.0     0.377001     0.177605     0.676847    Uiso  ? C
   H295       1.0     0.383265     0.177104     0.697803    Uiso  ? H
   C494       1.0     0.392918     0.162477     0.657522    Uiso  ? C
   C495       1.0     0.382696     0.156082     0.631374    Uiso  ? C
   H296       1.0     0.393088     0.140801     0.620233    Uiso  ? H
   C496       1.0     0.419478     0.151365     0.666345    Uiso  ? C
   C497       1.0     0.316610     0.106407     0.573449    Uiso  ? C
   C498       1.0     0.309753     0.873999     0.582277    Uiso  ? C
   C499       1.0     0.284293     0.866283     0.591798    Uiso  ? C
   H297       1.0     0.268291     0.882525     0.595359    Uiso  ? H
   C500       1.0     0.276202     0.840234     0.594779    Uiso  ? C
   H298       1.0     0.257241     0.835249     0.606042    Uiso  ? H
   C501       1.0     0.294175     0.819212     0.589392    Uiso  ? C
   H299       1.0     0.286626     0.798438     0.594239    Uiso  ? H
   C502       1.0     0.320239     0.824630     0.578496    Uiso  ? C
   C503       1.0     0.328304     0.852151     0.576904    Uiso  ? C
   H300       1.0     0.347630     0.857639     0.568850    Uiso  ? H
   C504       1.0     0.337859     0.800983     0.570992    Uiso  ? C
   C505       1.0     0.309095     0.146154     0.498936    Uiso  ? C
   C506       1.0     0.299124     0.140836     0.470607    Uiso  ? C
   C507       1.0     0.278746     0.157971     0.459068    Uiso  ? C
   H301       1.0     0.269550     0.172693     0.471943    Uiso  ? H
   C508       1.0     0.270319     0.154528     0.432095    Uiso  ? C
   H302       1.0     0.253720     0.167262     0.424387    Uiso  ? H
   C509       1.0     0.286112     0.138521     0.414864    Uiso  ? C
   H303       1.0     0.282856     0.138445     0.393094    Uiso  ? H
   C510       1.0     0.304984     0.120866     0.425451    Uiso  ? C
   C511       1.0     0.313081     0.123161     0.452792    Uiso  ? C
   H304       1.0     0.331518     0.112194     0.461100    Uiso  ? H
   C512       1.0     0.319138     0.896703     0.409477    Uiso  ? C
   C513       1.0     0.525747     0.291875     0.539328    Uiso  ? C
   C514       1.0     0.553163     0.296166     0.528530    Uiso  ? C
   C515       1.0     0.565987     0.321941     0.528049    Uiso  ? C
   H305       1.0     0.555878     0.338211     0.536664    Uiso  ? H
   C516       1.0     0.591139     0.325644     0.515818    Uiso  ? C
   H306       1.0     0.598855     0.345941     0.516715    Uiso  ? H
   C517       1.0     0.602918     0.304775     0.501752    Uiso  ? C
   H307       1.0     0.622008     0.309703     0.493111    Uiso  ? H
   C518       1.0     0.591724     0.277325     0.501836    Uiso  ? C
   C519       1.0     0.566018     0.273904     0.514309    Uiso  ? C
   H308       1.0     0.558060     0.252819     0.517247    Uiso  ? H
   C520       1.0     0.604036     0.255621     0.485401    Uiso  ? C
   C521       1.0     0.470571     0.264421     0.597394    Uiso  ? C
   C522       1.0     0.467765     0.255160     0.626231    Uiso  ? C
   C523       1.0     0.459887     0.273532     0.645821    Uiso  ? C
   H309       1.0     0.454061     0.293173     0.639173    Uiso  ? H
   C524       1.0     0.461211     0.266362     0.672970    Uiso  ? C
   H310       1.0     0.458329     0.280107     0.689174    Uiso  ? H
   C525       1.0     0.468309     0.239586     0.680934    Uiso  ? C
   H311       1.0     0.470271     0.236801     0.702067    Uiso  ? H
   C526       1.0     0.471229     0.219446     0.660609    Uiso  ? C
   C527       1.0     0.473044     0.227867     0.633662    Uiso  ? C
   H312       1.0     0.478124     0.213594     0.618206    Uiso  ? H
   C528       1.0     0.475229     0.190587     0.667821    Uiso  ? C
   C529       1.0     0.452250     0.288661     0.499742    Uiso  ? C
   C530       1.0     0.440630     0.294141     0.472920    Uiso  ? C
   C531       1.0     0.423155     0.316907     0.468493    Uiso  ? C
   H313       1.0     0.418631     0.330980     0.484656    Uiso  ? H
   C532       1.0     0.411868     0.320353     0.441677    Uiso  ? C
   H314       1.0     0.401929     0.339208     0.437364    Uiso  ? H
   C533       1.0     0.416108     0.301656     0.421350    Uiso  ? C
   H315       1.0     0.409190     0.307220     0.400229    Uiso  ? H
   C534       1.0     0.432469     0.277981     0.425987    Uiso  ? C
   C535       1.0     0.443501     0.274704     0.452572    Uiso  ? C
   H316       1.0     0.452498     0.254979     0.456465    Uiso  ? H
   C536       1.0     0.437809     0.257132     0.404202    Uiso  ? C
   C537       1.0     0.522649     0.154220     0.685710    Uiso  ? C
   C538       1.0     0.553278     0.159165     0.690337    Uiso  ? C
   C539       1.0     0.563845     0.164632     0.715897    Uiso  ? C
   H317       1.0     0.550651     0.167136     0.733615    Uiso  ? H
   C540       1.0     0.592536     0.169837     0.718727    Uiso  ? C
   H318       1.0     0.602457     0.178585     0.737072    Uiso  ? H
   C541       1.0     0.610174     0.163002     0.698944    Uiso  ? C
   H319       1.0     0.632187     0.166607     0.701350    Uiso  ? H
   C542       1.0     0.601313     0.155833     0.673760    Uiso  ? C
   C543       1.0     0.572131     0.156433     0.668335    Uiso  ? C
   H320       1.0     0.564125     0.152295     0.647439    Uiso  ? H
   C544       1.0     0.620660     0.145733     0.652781    Uiso  ? C
   C545       1.0     0.479243     0.881128     0.680394    Uiso  ? C
   C546       1.0     0.485371     0.852496     0.686443    Uiso  ? C
   C547       1.0     0.479081     0.843261     0.713448    Uiso  ? C
   H321       1.0     0.470620     0.856262     0.729950    Uiso  ? H
   C548       1.0     0.485091     0.816658     0.722090    Uiso  ? C
   H322       1.0     0.483272     0.811253     0.743576    Uiso  ? H
   C549       1.0     0.500102     0.800209     0.704286    Uiso  ? C
   H323       1.0     0.510963     0.781663     0.712323    Uiso  ? H
   C550       1.0     0.504937     0.808759     0.676331    Uiso  ? C
   C551       1.0     0.497034     0.835409     0.668237    Uiso  ? C
   H324       1.0     0.500222     0.843077     0.647289    Uiso  ? H
   C552       1.0     0.521818     0.791671     0.657638    Uiso  ? C
   C553       1.0     0.505059     0.231085     0.363936    Uiso  ? C
   C554       1.0     0.534817     0.232543     0.362163    Uiso  ? C
   C555       1.0     0.546724     0.244151     0.338634    Uiso  ? C
   H325       1.0     0.534596     0.251591     0.321730    Uiso  ? H
   C556       1.0     0.574710     0.248604     0.337729    Uiso  ? C
   H326       1.0     0.585701     0.256793     0.320252    Uiso  ? H
   C557       1.0     0.589409     0.242746     0.359516    Uiso  ? C
   H327       1.0     0.613255     0.243593     0.358653    Uiso  ? H
   C558       1.0     0.578172     0.233995     0.384700    Uiso  ? C
   C559       1.0     0.550840     0.227590     0.385481    Uiso  ? C
   H328       1.0     0.541634     0.218707     0.403798    Uiso  ? H
   C560       1.0     0.595949     0.225665     0.407335    Uiso  ? C
   C561       1.0     0.411111     0.191773     0.353282    Uiso  ? C
   C562       1.0     0.390079     0.175361     0.341028    Uiso  ? C
   C563       1.0     0.375884     0.183050     0.316865    Uiso  ? C
   H329       1.0     0.380325     0.201182     0.307009    Uiso  ? H
   C564       1.0     0.357084     0.165119     0.305899    Uiso  ? C
   H330       1.0     0.346505     0.172466     0.288258    Uiso  ? H
   C565       1.0     0.348487     0.141637     0.319176    Uiso  ? C
   H331       1.0     0.333039     0.128250     0.310366    Uiso  ? H
   C566       1.0     0.361957     0.132965     0.343121    Uiso  ? C
   C567       1.0     0.382903     0.149959     0.352979    Uiso  ? C
   H332       1.0     0.394270     0.142479     0.370454    Uiso  ? H
   C568       1.0     0.354665     0.108378     0.357916    Uiso  ? C
   C569       1.0     0.330265     0.814896     0.410012    Uiso  ? C
   C570       1.0     0.322182     0.793354     0.429857    Uiso  ? C
   C571       1.0     0.300169     0.775391     0.423675    Uiso  ? C
   H333       1.0     0.286819     0.780513     0.406773    Uiso  ? H
   C572       1.0     0.292996     0.754231     0.441334    Uiso  ? C
   H334       1.0     0.274350     0.742438     0.437258    Uiso  ? H
   C573       1.0     0.307347     0.749780     0.466172    Uiso  ? C
   H335       1.0     0.303676     0.731494     0.478146    Uiso  ? H
   C574       1.0     0.328984     0.767222     0.472676    Uiso  ? C
   C575       1.0     0.337165     0.787829     0.453748    Uiso  ? C
   H336       1.0     0.354960     0.799178     0.457579    Uiso  ? H
   C576       1.0     0.342129     0.765301     0.499488    Uiso  ? C
   O271       1.0     0.362568     0.182084     0.534766    Uiso  ? O
   O272       1.0     0.329360     0.193702     0.563237    Uiso  ? O
   O273       1.0     0.356131     0.137464     0.584610    Uiso  ? O
   O274       1.0     0.329136     0.173334     0.588031    Uiso  ? O
   O275       1.0     0.340489     0.113329     0.568651    Uiso  ? O
   O276       1.0     0.296805     0.121310     0.567034    Uiso  ? O
   O277       1.0     0.328860     0.131450     0.508161    Uiso  ? O
   O278       1.0     0.299067     0.164277     0.513588    Uiso  ? O
   O279       1.0     0.519633     0.268070     0.546403    Uiso  ? O
   O280       1.0     0.508448     0.310448     0.540348    Uiso  ? O
   O281       1.0     0.469038     0.246303     0.578900    Uiso  ? O
   O282       1.0     0.473192     0.289648     0.591916    Uiso  ? O
   O283       1.0     0.440751     0.252667     0.554600    Uiso  ? O
   O284       1.0     0.430701     0.296728     0.547883    Uiso  ? O
   O285       1.0     0.465550     0.267197     0.503797    Uiso  ? O
   O286       1.0     0.451576     0.306058     0.519103    Uiso  ? O
   O287       1.0     0.512675     0.151523     0.661856    Uiso  ? O
   O288       1.0     0.506748     0.152063     0.706861    Uiso  ? O
   O289       1.0     0.484589     0.891603     0.657774    Uiso  ? O
   O290       1.0     0.468999     0.895629     0.699379    Uiso  ? O
   O291       1.0     0.432569     0.135695     0.651035    Uiso  ? O
   O292       1.0     0.431444     0.162271     0.686861    Uiso  ? O
   O293       1.0     0.489432     0.174713     0.652923    Uiso  ? O
   O294       1.0     0.460388     0.180108     0.686166    Uiso  ? O
   O295       1.0     0.494025     0.222370     0.385851    Uiso  ? O
   O296       1.0     0.489603     0.236705     0.343855    Uiso  ? O
   O297       1.0     0.435931     0.232474     0.410251    Uiso  ? O
   O298       1.0     0.443986     0.264811     0.380888    Uiso  ? O
   O299       1.0     0.429139     0.181785     0.369790    Uiso  ? O
   O300       1.0     0.415829     0.215948     0.344478    Uiso  ? O
   O301       1.0     0.462307     0.176773     0.357966    Uiso  ? O
   O302       1.0     0.470204     0.210612     0.328868    Uiso  ? O
   O303       1.0     0.372530     0.890441     0.370667    Uiso  ? O
   O304       1.0     0.328641     0.895308     0.357828    Uiso  ? O
   O305       1.0     0.338968     0.884322     0.419045    Uiso  ? O
   O306       1.0     0.310545     0.890173     0.385829    Uiso  ? O
   O307       1.0     0.354535     0.820502     0.407029    Uiso  ? O
   O308       1.0     0.313278     0.825923     0.395766    Uiso  ? O
   O309       1.0     0.386087     0.857361     0.363761    Uiso  ? O
   O310       1.0     0.349358     0.841093     0.340520    Uiso  ? O
   O311       1.0     0.633271     0.172276     0.443916    Uiso  ? O
   O312       1.0     0.666786     0.202482     0.439782    Uiso  ? O
   O313       1.0     0.630510     0.210741     0.493970    Uiso  ? O
   O314       1.0     0.667430     0.217140     0.470138    Uiso  ? O
   O315       1.0     0.601370     0.229737     0.491046    Uiso  ? O
   O316       1.0     0.618457     0.262370     0.464524    Uiso  ? O
   O317       1.0     0.584448     0.218240     0.429500    Uiso  ? O
   O318       1.0     0.621174     0.228161     0.405739    Uiso  ? O
   O319       1.0     0.394574     0.124458     0.523040    Uiso  ? O
   O320       1.0     0.491739     0.216711     0.521732    Uiso  ? O
   O321       1.0     0.475952     0.133835     0.602322    Uiso  ? O
   O322       1.0     0.467826     0.186253     0.429843    Uiso  ? O
   O323       1.0     0.398524     0.859992     0.431593    Uiso  ? O
   O324       1.0     0.575356     0.170707     0.473882    Uiso  ? O
   Zn61       1.0     0.357415     0.139743     0.538863    Uiso  ? Zn
   Zn62       1.0     0.300338     0.162897     0.556271    Uiso  ? Zn
   Zn63       1.0     0.480003     0.252169     0.539921    Uiso  ? Zn
   Zn64       1.0     0.470269     0.312036     0.556157    Uiso  ? Zn
   Zn65       1.0     0.474959     0.134055     0.644032    Uiso  ? Zn
   Zn66       1.0     0.464973     0.142411     0.705744    Uiso  ? Zn
   Zn67       1.0     0.459444     0.202642     0.393418    Uiso  ? Zn
   Zn68       1.0     0.446291     0.244350     0.345948    Uiso  ? Zn
   Zn69       1.0     0.368521     0.859578     0.402753    Uiso  ? Zn
   Zn70       1.0     0.315770     0.852701     0.363688    Uiso  ? Zn
   Zn71       1.0     0.604373     0.198467     0.461557    Uiso  ? Zn
   Zn72       1.0     0.645600     0.239383     0.439496    Uiso  ? Zn
   H337       1.0     0.498878     0.203397     0.534886    Uiso  ? H
   H338       1.0     0.480994     0.211503     0.506266    Uiso  ? H
   H339       1.0     0.507625     0.789218     0.471222    Uiso  ? H
   H340       1.0     0.493970     0.788845     0.438454    Uiso  ? H
   H341       1.0     0.414607     0.831170     0.530195    Uiso  ? H
   H342       1.0     0.438213     0.807600     0.531152    Uiso  ? H
   H343       1.0     0.545258     0.794646     0.549674    Uiso  ? H
   H344       1.0     0.550005     0.823255     0.566620    Uiso  ? H
   H345       1.0     0.560809     0.180255     0.482221    Uiso  ? H
   H346       1.0     0.581528     0.153581     0.481334    Uiso  ? H
   H347       1.0     0.606920     0.849850     0.508672    Uiso  ? H
   H348       1.0     0.590329     0.852969     0.479295    Uiso  ? H
   H349       1.0     0.594682     0.125139     0.554125    Uiso  ? H
   H350       1.0     0.578982     0.114046     0.582882    Uiso  ? H
   H351       1.0     0.471467     0.166722     0.428371    Uiso  ? H
   H352       1.0     0.478126     0.196847     0.441870    Uiso  ? H
   H353       1.0     0.528137     0.851205     0.400206    Uiso  ? H
   H354       1.0     0.506943     0.877676     0.391768    Uiso  ? H
   H355       1.0     0.395596     0.858027     0.451289    Uiso  ? H
   H356       1.0     0.418075     0.859201     0.426907    Uiso  ? H
   H357       1.0     0.487467     0.123358     0.591227    Uiso  ? H
   H358       1.0     0.458514     0.137201     0.595997    Uiso  ? H
   H359       1.0     0.408339     0.116141     0.532729    Uiso  ? H
   H360       1.0     0.397630     0.127897     0.504232    Uiso  ? H
   C577       1.0     0.370176     0.409089     0.235679    Uiso  ? C
   C578       1.0     0.387196     0.393511     0.253902    Uiso  ? C
   C579       1.0     0.376426     0.375770     0.273645    Uiso  ? C
   H361       1.0     0.355902     0.370319     0.275687    Uiso  ? H
   C580       1.0     0.395159     0.363429     0.290942    Uiso  ? C
   H362       1.0     0.388026     0.350905     0.308065    Uiso  ? H
   C581       1.0     0.422073     0.369986     0.290467    Uiso  ? C
   H363       1.0     0.435281     0.359216     0.302343    Uiso  ? H
   C582       1.0     0.432063     0.387239     0.270426    Uiso  ? C
   C583       1.0     0.414333     0.400315     0.253756    Uiso  ? C
   H364       1.0     0.422662     0.414555     0.239518    Uiso  ? H
   C584       1.0     0.462252     0.393557     0.267598    Uiso  ? C
   C585       1.0     0.340056     0.491071     0.223159    Uiso  ? C
   C586       1.0     0.344125     0.517646     0.237334    Uiso  ? C
   C587       1.0     0.325721     0.528042     0.256302    Uiso  ? C
   H365       1.0     0.305573     0.518803     0.261161    Uiso  ? H
   C588       1.0     0.333512     0.551403     0.269399    Uiso  ? C
   H366       1.0     0.319800     0.561037     0.284770    Uiso  ? H
   C589       1.0     0.357941     0.564950     0.264392    Uiso  ? C
   H367       1.0     0.362607     0.582709     0.275793    Uiso  ? H
   C590       1.0     0.375896     0.554371     0.245951    Uiso  ? C
   C591       1.0     0.369169     0.531076     0.231726    Uiso  ? C
   H368       1.0     0.382796     0.522489     0.217717    Uiso  ? H
   C592       1.0     0.403732     0.565533     0.243965    Uiso  ? C
   C593       1.0     0.307215     0.444155     0.159538    Uiso  ? C
   C594       1.0     0.288939     0.444524     0.135958    Uiso  ? C
   C595       1.0     0.260614     0.440508     0.139724    Uiso  ? C
   H369       1.0     0.253263     0.431708     0.159360    Uiso  ? H
   C596       1.0     0.243964     0.439337     0.116799    Uiso  ? C
   H370       1.0     0.223444     0.436872     0.119756    Uiso  ? H
   C597       1.0     0.254512     0.444750     0.892290    Uiso  ? C
   H371       1.0     0.240845     0.445158     0.874215    Uiso  ? H
   C598       1.0     0.282703     0.447718     0.888788    Uiso  ? C
   C599       1.0     0.299816     0.448208     0.110513    Uiso  ? C
   H372       1.0     0.321063     0.451944     0.108139    Uiso  ? H
   C600       1.0     0.295055     0.454200     0.861610    Uiso  ? C
   C601       1.0     0.339772     0.392540     0.180198    Uiso  ? C
   C602       1.0     0.342466     0.365466     0.169006    Uiso  ? C
   C603       1.0     0.334844     0.342950     0.184407    Uiso  ? C
   H373       1.0     0.325526     0.345045     0.204493    Uiso  ? H
   C604       1.0     0.335634     0.317193     0.173139    Uiso  ? C
   H374       1.0     0.325678     0.301031     0.183852    Uiso  ? H
   C605       1.0     0.345463     0.312645     0.146800    Uiso  ? C
   H375       1.0     0.342700     0.292497     0.138180    Uiso  ? H
   C606       1.0     0.356724     0.334107     0.132073    Uiso  ? C
   C607       1.0     0.354314     0.361182     0.143123    Uiso  ? C
   H376       1.0     0.363405     0.377734     0.132986    Uiso  ? H
   C608       1.0     0.372448     0.329524     0.107188    Uiso  ? C
   C609       1.0     0.564294     0.417302     0.257387    Uiso  ? C
   C610       1.0     0.591837     0.428508     0.256099    Uiso  ? C
   C611       1.0     0.611186     0.424742     0.277434    Uiso  ? C
   H377       1.0     0.608030     0.408155     0.291846    Uiso  ? H
   C612       1.0     0.637874     0.436494     0.276465    Uiso  ? C
   H378       1.0     0.650762     0.435982     0.293984    Uiso  ? H
   C613       1.0     0.645393     0.452212     0.252382    Uiso  ? C
   H379       1.0     0.665673     0.461174     0.251454    Uiso  ? H
   C614       1.0     0.627064     0.455934     0.231872    Uiso  ? C
   C615       1.0     0.600576     0.442908     0.232995    Uiso  ? C
   H380       1.0     0.587585     0.445779     0.214148    Uiso  ? H
   C616       1.0     0.633773     0.475384     0.209943    Uiso  ? C
   C617       1.0     0.515268     0.453798     0.274203    Uiso  ? C
   C618       1.0     0.513999     0.482143     0.284394    Uiso  ? C
   C619       1.0     0.531069     0.490166     0.305432    Uiso  ? C
   H381       1.0     0.545981     0.475747     0.312524    Uiso  ? H
   C620       1.0     0.530661     0.517033     0.317024    Uiso  ? C
   H382       1.0     0.543025     0.522755     0.333609    Uiso  ? H
   C621       1.0     0.512488     0.535323     0.304853    Uiso  ? C
   H383       1.0     0.515323     0.555671     0.311627    Uiso  ? H
   C622       1.0     0.496935     0.527679     0.281736    Uiso  ? C
   C623       1.0     0.497120     0.501585     0.272461    Uiso  ? C
   H384       1.0     0.484652     0.498909     0.254384    Uiso  ? H
   C624       1.0     0.481505     0.549496     0.266674    Uiso  ? C
   C625       1.0     0.541611     0.364830     0.229057    Uiso  ? C
   C626       1.0     0.554822     0.342471     0.213926    Uiso  ? C
   C627       1.0     0.560194     0.317624     0.227198    Uiso  ? C
   H385       1.0     0.554085     0.314507     0.247821    Uiso  ? H
   C628       1.0     0.572647     0.296578     0.211904    Uiso  ? C
   H386       1.0     0.579896     0.278600     0.223029    Uiso  ? H
   C629       1.0     0.581128     0.301010     0.185562    Uiso  ? C
   H387       1.0     0.591569     0.284844     0.175785    Uiso  ? H
   C630       1.0     0.575928     0.325400     0.171680    Uiso  ? C
   C631       1.0     0.563465     0.346134     0.186760    Uiso  ? C
   H388       1.0     0.559285     0.364822     0.177348    Uiso  ? H
   C632       1.0     0.581025     0.326584     0.142488    Uiso  ? C
   C633       1.0     0.483475     0.627688     0.228046    Uiso  ? C
   C634       1.0     0.498324     0.650591     0.215902    Uiso  ? C
   C635       1.0     0.499664     0.675867     0.228737    Uiso  ? C
   H389       1.0     0.488923     0.678780     0.246479    Uiso  ? H
   C636       1.0     0.516505     0.697392     0.219581    Uiso  ? C
   H390       1.0     0.520793     0.717402     0.230879    Uiso  ? H
   C637       1.0     0.526336     0.695128     0.192176    Uiso  ? C
   H391       1.0     0.537286     0.712204     0.186046    Uiso  ? H
   C638       1.0     0.524407     0.669893     0.177556    Uiso  ? C
   C639       1.0     0.509739     0.648236     0.189199    Uiso  ? C
   H392       1.0     0.507392     0.628199     0.178295    Uiso  ? H
   C640       1.0     0.536359     0.667578     0.149580    Uiso  ? C
   C641       1.0     0.421724     0.619515     0.215997    Uiso  ? C
   C642       1.0     0.405446     0.638898     0.200263    Uiso  ? C
   C643       1.0     0.394061     0.662080     0.212416    Uiso  ? C
   H393       1.0     0.398436     0.665926     0.234085    Uiso  ? H
   C644       1.0     0.375857     0.678758     0.197817    Uiso  ? C
   H394       1.0     0.364998     0.695264     0.208225    Uiso  ? H
   C645       1.0     0.368414     0.671891     0.170876    Uiso  ? C
   H395       1.0     0.354870     0.685181     0.159820    Uiso  ? H
   C646       1.0     0.382113     0.650407     0.157689    Uiso  ? C
   C647       1.0     0.398934     0.632713     0.172788    Uiso  ? C
   H396       1.0     0.406248     0.613007     0.164322    Uiso  ? H
   C648       1.0     0.377321     0.644989     0.127992    Uiso  ? C
   C649       1.0     0.631230     0.361265     0.118927    Uiso  ? C
   C650       1.0     0.652287     0.378307     0.131850    Uiso  ? C
   C651       1.0     0.678335     0.369634     0.130081    Uiso  ? C
   H397       1.0     0.683087     0.349693     0.122905    Uiso  ? H
   C652       1.0     0.699207     0.385371     0.140212    Uiso  ? C
   H398       1.0     0.719749     0.377358     0.141610    Uiso  ? H
   C653       1.0     0.694589     0.411210     0.151472    Uiso  ? C
   H399       1.0     0.712383     0.421477     0.159047    Uiso  ? H
   C654       1.0     0.667661     0.421338     0.151270    Uiso  ? C
   C655       1.0     0.646120     0.403947     0.144129    Uiso  ? C
   H400       1.0     0.625044     0.410205     0.145853    Uiso  ? H
   C656       1.0     0.662800     0.450626     0.155186    Uiso  ? C
   C657       1.0     0.548765     0.300158     0.897687    Uiso  ? C
   C658       1.0     0.523983     0.282886     0.897915    Uiso  ? C
   C659       1.0     0.525938     0.255449     0.102577    Uiso  ? C
   H401       1.0     0.545565     0.245599     0.106600    Uiso  ? H
   C660       1.0     0.501560     0.239800     0.104213    Uiso  ? C
   H402       1.0     0.502389     0.219462     0.109892    Uiso  ? H
   C661       1.0     0.476975     0.250638     0.898983    Uiso  ? C
   H403       1.0     0.459489     0.236189     0.897098    Uiso  ? H
   C662       1.0     0.475073     0.277997     0.891953    Uiso  ? C
   C663       1.0     0.498129     0.294488     0.894516    Uiso  ? C
   H404       1.0     0.495694     0.316807     0.891559    Uiso  ? H
   C664       1.0     0.448652     0.290643     0.884022    Uiso  ? C
   C665       1.0     0.362131     0.331591     0.844574    Uiso  ? C
   C666       1.0     0.338696     0.343977     0.831839    Uiso  ? C
   C667       1.0     0.317668     0.326986     0.824251    Uiso  ? C
   H405       1.0     0.319280     0.305784     0.824996    Uiso  ? H
   C668       1.0     0.292669     0.338134     0.816935    Uiso  ? C
   H406       1.0     0.278425     0.324531     0.808155    Uiso  ? H
   C669       1.0     0.288271     0.366912     0.818308    Uiso  ? C
   H407       1.0     0.271020     0.377478     0.808966    Uiso  ? H
   C670       1.0     0.310425     0.383582     0.824411    Uiso  ? C
   C671       1.0     0.335406     0.372286     0.832998    Uiso  ? C
   H408       1.0     0.352852     0.385096     0.836410    Uiso  ? H
   C672       1.0     0.309597     0.413202     0.818692    Uiso  ? C
   O325       1.0     0.380698     0.426807     0.220793    Uiso  ? O
   O326       1.0     0.345122     0.405298     0.235338    Uiso  ? O
   O327       1.0     0.352040     0.487398     0.200738    Uiso  ? O
   O328       1.0     0.329006     0.471071     0.234079    Uiso  ? O
   O329       1.0     0.332706     0.439586     0.155145    Uiso  ? O
   O330       1.0     0.296965     0.443184     0.183766    Uiso  ? O
   O331       1.0     0.349163     0.413895     0.167314    Uiso  ? O
   O332       1.0     0.331709     0.395281     0.204714    Uiso  ? O
   O333       1.0     0.550842     0.415095     0.235401    Uiso  ? O
   O334       1.0     0.551896     0.415639     0.280489    Uiso  ? O
   O335       1.0     0.506630     0.449787     0.250828    Uiso  ? O
   O336       1.0     0.521646     0.433588     0.289673    Uiso  ? O
   O337       1.0     0.473339     0.392670     0.244316    Uiso  ? O
   O338       1.0     0.476309     0.396581     0.288737    Uiso  ? O
   O339       1.0     0.539532     0.388587     0.219183    Uiso  ? O
   O340       1.0     0.532064     0.360174     0.253628    Uiso  ? O
   O341       1.0     0.484510     0.604506     0.216540    Uiso  ? O
   O342       1.0     0.464031     0.633097     0.246438    Uiso  ? O
   O343       1.0     0.423925     0.595334     0.206986    Uiso  ? O
   O344       1.0     0.433482     0.625690     0.239118    Uiso  ? O
   O345       1.0     0.415226     0.564034     0.220714    Uiso  ? O
   O346       1.0     0.413358     0.578639     0.264059    Uiso  ? O
   O347       1.0     0.469889     0.544521     0.244233    Uiso  ? O
   O348       1.0     0.478260     0.572426     0.278122    Uiso  ? O
   O349       1.0     0.605295     0.368311     0.118002    Uiso  ? O
   O350       1.0     0.637472     0.339797     0.105750    Uiso  ? O
   O351       1.0     0.580958     0.350308     0.130428    Uiso  ? O
   O352       1.0     0.590231     0.306115     0.130179    Uiso  ? O
   O353       1.0     0.546342     0.324328     0.889454    Uiso  ? O
   O354       1.0     0.571072     0.291280     0.103272    Uiso  ? O
   O355       1.0     0.601204     0.352863     0.855443    Uiso  ? O
   O356       1.0     0.597279     0.309272     0.854787    Uiso  ? O
   O357       1.0     0.442599     0.313325     0.893121    Uiso  ? O
   O358       1.0     0.434487     0.279321     0.867155    Uiso  ? O
   O359       1.0     0.384794     0.348059     0.897527    Uiso  ? O
   O360       1.0     0.376755     0.304438     0.899466    Uiso  ? O
   O361       1.0     0.376576     0.345762     0.860450    Uiso  ? O
   O362       1.0     0.369847     0.307946     0.838371    Uiso  ? O
   O363       1.0     0.423691     0.337587     0.831995    Uiso  ? O
   O364       1.0     0.400378     0.299780     0.824383    Uiso  ? O
   O365       1.0     0.648041     0.505067     0.120074    Uiso  ? O
   O366       1.0     0.688283     0.492553     0.135996    Uiso  ? O
   O367       1.0     0.621643     0.539315     0.170187    Uiso  ? O
   O368       1.0     0.666778     0.547338     0.171451    Uiso  ? O
   O369       1.0     0.621620     0.472878     0.186767    Uiso  ? O
   O370       1.0     0.654739     0.490297     0.210131    Uiso  ? O
   O371       1.0     0.638770     0.460161     0.160863    Uiso  ? O
   O372       1.0     0.683207     0.466701     0.154896    Uiso  ? O
   O373       1.0     0.398511     0.461824     0.166752    Uiso  ? O
   O374       1.0     0.490488     0.421121     0.192549    Uiso  ? O
   O375       1.0     0.469724     0.554887     0.178129    Uiso  ? O
   O376       1.0     0.550184     0.389182     0.882940    Uiso  ? O
   O377       1.0     0.444106     0.374313     0.876783    Uiso  ? O
   O378       1.0     0.585179     0.498190     0.135613    Uiso  ? O
   Zn73       1.0     0.363017     0.447919     0.187626    Uiso  ? Zn
   Zn74       1.0     0.314734     0.432098     0.221382    Uiso  ? Zn
   Zn75       1.0     0.507725     0.415064     0.229187    Uiso  ? Zn
   Zn76       1.0     0.519345     0.388916     0.285700    Uiso  ? Zn
   Zn77       1.0     0.457412     0.569653     0.214233    Uiso  ? Zn
   Zn78       1.0     0.448171     0.600400     0.269052    Uiso  ? Zn
   Zn79       1.0     0.575224     0.354398     0.889281    Uiso  ? Zn
   Zn80       1.0     0.610570     0.304893     0.893517    Uiso  ? Zn
   Zn81       1.0     0.418766     0.340966     0.872552    Uiso  ? Zn
   Zn82       1.0     0.393543     0.285749     0.865547    Uiso  ? Zn
   Zn83       1.0     0.623789     0.500497     0.153201    Uiso  ? Zn
   Zn84       1.0     0.678453     0.504769     0.175138    Uiso  ? Zn
   C673       1.0     0.602767     0.553214     0.741783    Uiso  ? C
   C674       1.0     0.584469     0.563163     0.721231    Uiso  ? C
   C675       1.0     0.594603     0.574814     0.697027    Uiso  ? C
   H409       1.0     0.616975     0.575927     0.692940    Uiso  ? H
   C676       1.0     0.577492     0.585316     0.677143    Uiso  ? C
   H410       1.0     0.586304     0.595129     0.659064    Uiso  ? H
   C677       1.0     0.549518     0.581860     0.680672    Uiso  ? C
   H411       1.0     0.536434     0.592039     0.664800    Uiso  ? H
   C678       1.0     0.537969     0.569117     0.704286    Uiso  ? C
   C679       1.0     0.555670     0.560767     0.724435    Uiso  ? C
   H412       1.0     0.548265     0.552521     0.743586    Uiso  ? H
   C680       1.0     0.508555     0.567728     0.708747    Uiso  ? C
   C681       1.0     0.628798     0.493544     0.744752    Uiso  ? C
   C682       1.0     0.619785     0.470744     0.725405    Uiso  ? C
   C683       1.0     0.632274     0.468833     0.700124    Uiso  ? C
   H413       1.0     0.646723     0.482868     0.691433    Uiso  ? H
   C684       1.0     0.621736     0.449749     0.681033    Uiso  ? C
   H414       1.0     0.630063     0.450900     0.660122    Uiso  ? H
   C685       1.0     0.598987     0.432118     0.687117    Uiso  ? C
   H415       1.0     0.591910     0.418650     0.669622    Uiso  ? H
   C686       1.0     0.588934     0.431824     0.714199    Uiso  ? C
   C687       1.0     0.599447     0.452391     0.732358    Uiso  ? C
   H416       1.0     0.589218     0.454545     0.751651    Uiso  ? H
   C688       1.0     0.566142     0.414169     0.722086    Uiso  ? C
   C689       1.0     0.667077     0.520330     0.819146    Uiso  ? C
   C690       1.0     0.681617     0.506363     0.841287    Uiso  ? C
   C691       1.0     0.707189     0.495429     0.837445    Uiso  ? C
   H417       1.0     0.717522     0.497707     0.817684    Uiso  ? H
   C692       1.0     0.720376     0.483489     0.859734    Uiso  ? C
   H418       1.0     0.738754     0.472750     0.855419    Uiso  ? H
   C693       1.0     0.709883     0.485993     0.886375    Uiso  ? C
   H419       1.0     0.722005     0.479345     0.101721    Uiso  ? H
   C694       1.0     0.684295     0.496807     0.890055    Uiso  ? C
   C695       1.0     0.669730     0.505666     0.867890    Uiso  ? C
   H420       1.0     0.650126     0.513987     0.870487    Uiso  ? H
   C696       1.0     0.673544     0.500237     0.116461    Uiso  ? C
   C697       1.0     0.629259     0.586605     0.792435    Uiso  ? C
   C698       1.0     0.624317     0.614349     0.800505    Uiso  ? C
   C699       1.0     0.637809     0.636185     0.788033    Uiso  ? C
   H421       1.0     0.649036     0.633196     0.770967    Uiso  ? H
   C700       1.0     0.633105     0.662677     0.795652    Uiso  ? C
   H422       1.0     0.641334     0.679036     0.782537    Uiso  ? H
   C701       1.0     0.616715     0.667278     0.817883    Uiso  ? C
   H423       1.0     0.613013     0.688718     0.824608    Uiso  ? H
   C702       1.0     0.603257     0.645611     0.831813    Uiso  ? C
   C703       1.0     0.606944     0.618812     0.822893    Uiso  ? C
   H424       1.0     0.598515     0.601984     0.833796    Uiso  ? H
   C704       1.0     0.585892     0.650865     0.855924    Uiso  ? C
   C705       1.0     0.414104     0.528328     0.719785    Uiso  ? C
   C706       1.0     0.388509     0.512584     0.718975    Uiso  ? C
   C707       1.0     0.371498     0.515043     0.697220    Uiso  ? C
   H425       1.0     0.377691     0.527433     0.679868    Uiso  ? H
   C708       1.0     0.346552     0.501883     0.696451    Uiso  ? C
   H426       1.0     0.332422     0.504052     0.678231    Uiso  ? H
   C709       1.0     0.338340     0.488478     0.718589    Uiso  ? C
   H427       1.0     0.316602     0.482697     0.719288    Uiso  ? H
   C710       1.0     0.354600     0.486312     0.741759    Uiso  ? C
   C711       1.0     0.380660     0.497132     0.741192    Uiso  ? C
   H428       1.0     0.392308     0.498115     0.759877    Uiso  ? H
   C712       1.0     0.341902     0.476379     0.766762    Uiso  ? C
   C713       1.0     0.473968     0.522007     0.691234    Uiso  ? C
   C714       1.0     0.486476     0.498283     0.676607    Uiso  ? C
   C715       1.0     0.494592     0.498838     0.649297    Uiso  ? C
   H429       1.0     0.490724     0.516089     0.636824    Uiso  ? H
   C716       1.0     0.506724     0.476265     0.636450    Uiso  ? C
   H430       1.0     0.515516     0.478870     0.615776    Uiso  ? H
   C717       1.0     0.509176     0.451264     0.650704    Uiso  ? C
   H431       1.0     0.516793     0.433540     0.640469    Uiso  ? H
   C718       1.0     0.501495     0.449808     0.677352    Uiso  ? C
   C719       1.0     0.490307     0.473045     0.690861    Uiso  ? C
   H432       1.0     0.485408     0.472039     0.711984    Uiso  ? H
   C720       1.0     0.506180     0.425018     0.692207    Uiso  ? C
   C721       1.0     0.438991     0.607943     0.741692    Uiso  ? C
   C722       1.0     0.427411     0.631306     0.757115    Uiso  ? C
   C723       1.0     0.423799     0.656681     0.744995    Uiso  ? C
   H433       1.0     0.431255     0.660957     0.724128    Uiso  ? H
   C724       1.0     0.414619     0.678117     0.761615    Uiso  ? C
   H434       1.0     0.411959     0.697400     0.752082    Uiso  ? H
   C725       1.0     0.404855     0.672939     0.788476    Uiso  ? C
   H435       1.0     0.398227     0.690482     0.799526    Uiso  ? H
   C726       1.0     0.404077     0.647121     0.799150    Uiso  ? C
   C727       1.0     0.417706     0.626404     0.784470    Uiso  ? C
   H436       1.0     0.416045     0.605436     0.791071    Uiso  ? H
   C728       1.0     0.395448     0.642991     0.827583    Uiso  ? C
   C729       1.0     0.481121     0.356142     0.746431    Uiso  ? C
   C730       1.0     0.456965     0.340158     0.753503    Uiso  ? C
   C731       1.0     0.441340     0.326375     0.733659    Uiso  ? C
   H437       1.0     0.446762     0.325293     0.712628    Uiso  ? H
   C732       1.0     0.419123     0.310326     0.740673    Uiso  ? C
   H438       1.0     0.411113     0.298629     0.724228    Uiso  ? H
   C733       1.0     0.411588     0.307601     0.767893    Uiso  ? C
   H439       1.0     0.394725     0.294592     0.773044    Uiso  ? H
   C734       1.0     0.425574     0.321865     0.788328    Uiso  ? C
   C735       1.0     0.448380     0.339066     0.781237    Uiso  ? C
   H440       1.0     0.460827     0.349778     0.795901    Uiso  ? H
   C736       1.0     0.417395     0.318562     0.816513    Uiso  ? C
   C737       1.0     0.559277     0.360455     0.754017    Uiso  ? C
   C738       1.0     0.580318     0.345068     0.769432    Uiso  ? C
   C739       1.0     0.599642     0.330497     0.755615    Uiso  ? C
   H441       1.0     0.600359     0.332414     0.732906    Uiso  ? H
   C740       1.0     0.616205     0.313031     0.769751    Uiso  ? C
   H442       1.0     0.631129     0.300696     0.760143    Uiso  ? H
   C741       1.0     0.615403     0.309940     0.797910    Uiso  ? C
   H443       1.0     0.627431     0.293666     0.807433    Uiso  ? H
   C742       1.0     0.598706     0.328940     0.812852    Uiso  ? C
   C743       1.0     0.581583     0.345734     0.798141    Uiso  ? C
   H444       1.0     0.567945     0.358863     0.809981    Uiso  ? H
   C744       1.0     0.599657     0.330869     0.842846    Uiso  ? C
   C745       1.0     0.329660     0.600796     0.867141    Uiso  ? C
   C746       1.0     0.307404     0.582788     0.861443    Uiso  ? C
   C747       1.0     0.281333     0.588705     0.870686    Uiso  ? C
   H445       1.0     0.278411     0.606134     0.881785    Uiso  ? H
   C748       1.0     0.259682     0.570922     0.863437    Uiso  ? C
   H446       1.0     0.238512     0.577705     0.866991    Uiso  ? H
   C749       1.0     0.265298     0.546704     0.850125    Uiso  ? C
   H447       1.0     0.249209     0.531782     0.848698    Uiso  ? H
   C750       1.0     0.292064     0.539975     0.843796    Uiso  ? C
   C751       1.0     0.312557     0.559068     0.848150    Uiso  ? C
   H448       1.0     0.332616     0.553858     0.844824    Uiso  ? H
   C752       1.0     0.298630     0.512854     0.835810    Uiso  ? C
   C753       1.0     0.411637     0.667639     0.882670    Uiso  ? C
   C754       1.0     0.434256     0.685743     0.888221    Uiso  ? C
   C755       1.0     0.429090     0.710968     0.900000    Uiso  ? C
   H449       1.0     0.408047     0.722048     0.100000    Uiso  ? H
   C756       1.0     0.451160     0.727291     0.107231    Uiso  ? C
   H450       1.0     0.448122     0.747874     0.113976    Uiso  ? H
   C757       1.0     0.476768     0.718222     0.102892    Uiso  ? C
   H451       1.0     0.494110     0.729394     0.109664    Uiso  ? H
   C758       1.0     0.482431     0.689936     0.895387    Uiso  ? C
   C759       1.0     0.460861     0.675162     0.887216    Uiso  ? C
   H452       1.0     0.465657     0.655381     0.879013    Uiso  ? H
   C760       1.0     0.511319     0.678783     0.895837    Uiso  ? C
   C761       1.0     0.593587     0.636534     0.138296    Uiso  ? C
   C762       1.0     0.613236     0.624802     0.156725    Uiso  ? C
   C763       1.0     0.630615     0.640685     0.173000    Uiso  ? C
   H453       1.0     0.627249     0.661389     0.174738    Uiso  ? H
   C764       1.0     0.651793     0.628380     0.187525    Uiso  ? C
   H454       1.0     0.666729     0.642147     0.198044    Uiso  ? H
   C765       1.0     0.655318     0.600946     0.185431    Uiso  ? C
   H455       1.0     0.670979     0.591635     0.195796    Uiso  ? H
   C766       1.0     0.636408     0.584175     0.173189    Uiso  ? C
   C767       1.0     0.614739     0.596089     0.158629    Uiso  ? C
   H456       1.0     0.600674     0.583088     0.147580    Uiso  ? H
   C768       1.0     0.642116     0.555514     0.172263    Uiso  ? C
   O379       1.0     0.596150     0.551537     0.766175    Uiso  ? O
   O380       1.0     0.627094     0.546678     0.735808    Uiso  ? O
   O381       1.0     0.620353     0.492328     0.769386    Uiso  ? O
   O382       1.0     0.639929     0.515486     0.735777    Uiso  ? O
   O383       1.0     0.643434     0.529610     0.823697    Uiso  ? O
   O384       1.0     0.673743     0.516214     0.795189    Uiso  ? O
   O385       1.0     0.608855     0.569612     0.792531    Uiso  ? O
   O386       1.0     0.651125     0.580418     0.781047    Uiso  ? O
   O387       1.0     0.434536     0.519285     0.732835    Uiso  ? O
   O388       1.0     0.415159     0.550020     0.705186    Uiso  ? O
   O389       1.0     0.465436     0.519674     0.715688    Uiso  ? O
   O390       1.0     0.471034     0.544810     0.679324    Uiso  ? O
   O391       1.0     0.501211     0.557462     0.731176    Uiso  ? O
   O392       1.0     0.491574     0.572863     0.690495    Uiso  ? O
   O393       1.0     0.440926     0.585448     0.753824    Uiso  ? O
   O394       1.0     0.448486     0.610733     0.717899    Uiso  ? O
   O395       1.0     0.495014     0.368118     0.764876    Uiso  ? O
   O396       1.0     0.484687     0.362061     0.721537    Uiso  ? O
   O397       1.0     0.551027     0.383557     0.763635    Uiso  ? O
   O398       1.0     0.550556     0.351516     0.730886    Uiso  ? O
   O399       1.0     0.556807     0.414246     0.746597    Uiso  ? O
   O400       1.0     0.554939     0.398885     0.703200    Uiso  ? O
   O401       1.0     0.496218     0.421058     0.716814    Uiso  ? O
   O402       1.0     0.521349     0.405572     0.682441    Uiso  ? O
   O403       1.0     0.353059     0.595174     0.859805    Uiso  ? O
   O404       1.0     0.326107     0.622347     0.880010    Uiso  ? O
   O405       1.0     0.411332     0.631265     0.844552    Uiso  ? O
   O406       1.0     0.371258     0.651225     0.834905    Uiso  ? O
   O407       1.0     0.416518     0.644441     0.873693    Uiso  ? O
   O408       1.0     0.386869     0.673928     0.888914    Uiso  ? O
   O409       1.0     0.385935     0.622776     0.118101    Uiso  ? O
   O410       1.0     0.367906     0.663347     0.112387    Uiso  ? O
   O411       1.0     0.514029     0.653487     0.889730    Uiso  ? O
   O412       1.0     0.530901     0.693410     0.105318    Uiso  ? O
   O413       1.0     0.577374     0.630719     0.870444    Uiso  ? O
   O414       1.0     0.580316     0.674614     0.863161    Uiso  ? O
   O415       1.0     0.571705     0.624794     0.133051    Uiso  ? O
   O416       1.0     0.597986     0.660981     0.130422    Uiso  ? O
   O417       1.0     0.540332     0.644346     0.140592    Uiso  ? O
   O418       1.0     0.542505     0.688226     0.134131    Uiso  ? O
   O419       1.0     0.319347     0.449188     0.856030    Uiso  ? O
   O420       1.0     0.280066     0.462799     0.842448    Uiso  ? O
   O421       1.0     0.327022     0.427690     0.831041    Uiso  ? O
   O422       1.0     0.289648     0.423032     0.805721    Uiso  ? O
   O423       1.0     0.357303     0.467968     0.786750    Uiso  ? O
   O424       1.0     0.316111     0.476498     0.769599    Uiso  ? O
   O425       1.0     0.323353     0.508158     0.830686    Uiso  ? O
   O426       1.0     0.281089     0.494231     0.831055    Uiso  ? O
   O427       1.0     0.584651     0.504296     0.813717    Uiso  ? O
   O428       1.0     0.483712     0.541309     0.781136    Uiso  ? O
   O429       1.0     0.498878     0.431249     0.777083    Uiso  ? O
   O430       1.0     0.405620     0.570656     0.876603    Uiso  ? O
   O431       1.0     0.532892     0.590171     0.892514    Uiso  ? O
   O432       1.0     0.376085     0.476825     0.851403    Uiso  ? O
   Zn85       1.0     0.615344     0.525429     0.793292    Uiso  ? Zn
   Zn86       1.0     0.661848     0.542391     0.763335    Uiso  ? Zn
   Zn87       1.0     0.463010     0.550371     0.745320    Uiso  ? Zn
   Zn88       1.0     0.447215     0.578152     0.692055    Uiso  ? Zn
   Zn89       1.0     0.514563     0.401700     0.752001    Uiso  ? Zn
   Zn90       1.0     0.523207     0.369584     0.702569    Uiso  ? Zn
   Zn91       1.0     0.390371     0.609913     0.878020    Uiso  ? Zn
   Zn92       1.0     0.351910     0.655562     0.872591    Uiso  ? Zn
   Zn93       1.0     0.546710     0.629560     0.899214    Uiso  ? Zn
   Zn94       1.0     0.573715     0.686354     0.103174    Uiso  ? Zn
   Zn95       1.0     0.341871     0.469550     0.826202    Uiso  ? Zn
   Zn96       1.0     0.285613     0.464618     0.800273    Uiso  ? Zn
   H457       1.0     0.487420     0.555153     0.794100    Uiso  ? H
   H458       1.0     0.487621     0.522680     0.787146    Uiso  ? H
   H459       1.0     0.502082     0.423468     0.176616    Uiso  ? H
   H460       1.0     0.472396     0.429564     0.193512    Uiso  ? H
   H461       1.0     0.579646     0.478980     0.131378    Uiso  ? H
   H462       1.0     0.576162     0.513942     0.127599    Uiso  ? H
   H463       1.0     0.541985     0.399801     0.897115    Uiso  ? H
   H464       1.0     0.541023     0.392719     0.866207    Uiso  ? H
   H465       1.0     0.376718     0.470192     0.871027    Uiso  ? H
   H466       1.0     0.392574     0.482204     0.842968    Uiso  ? H
   H467       1.0     0.400479     0.455117     0.148316    Uiso  ? H
   H468       1.0     0.414063     0.469024     0.176153    Uiso  ? H
   H469       1.0     0.442313     0.390305     0.866459    Uiso  ? H
   H470       1.0     0.460871     0.368747     0.885208    Uiso  ? H
   H471       1.0     0.424587     0.569825     0.873419    Uiso  ? H
   H472       1.0     0.394676     0.556735     0.885620    Uiso  ? H
   H473       1.0     0.465556     0.536489     0.174583    Uiso  ? H
   H474       1.0     0.480031     0.567114     0.166360    Uiso  ? H
   H475       1.0     0.518145     0.585251     0.102145    Uiso  ? H
   H476       1.0     0.540117     0.579188     0.878298    Uiso  ? H
   H477       1.0     0.498908     0.428845     0.797270    Uiso  ? H
   H478       1.0     0.492281     0.448041     0.769018    Uiso  ? H
   H479       1.0     0.589488     0.497837     0.831514    Uiso  ? H
   H480       1.0     0.565932     0.505201     0.807772    Uiso  ? H
   C769       1.0     0.697511     0.303504     0.422089    Uiso  ? C
   H481       1.0     0.715440     0.314818     0.422014    Uiso  ? H
   C770       1.0     0.657011     0.291014     0.414357    Uiso  ? C
   N1         1.0     0.674443     0.311327     0.409605    Uiso  ? N
   C771       1.0     0.670819     0.334310     0.390452    Uiso  ? C
   H482       1.0     0.682281     0.351299     0.398271    Uiso  ? H
   H483       1.0     0.681282     0.330426     0.370771    Uiso  ? H
   C772       1.0     0.641866     0.342828     0.386407    Uiso  ? C
   C773       1.0     0.625718     0.326205     0.369485    Uiso  ? C
   C774       1.0     0.629951     0.363175     0.402267    Uiso  ? C
   C775       1.0     0.597697     0.329894     0.368626    Uiso  ? C
   H484       1.0     0.634790     0.308298     0.359183    Uiso  ? H
   C776       1.0     0.602103     0.367943     0.400020    Uiso  ? C
   H485       1.0     0.642156     0.373898     0.417165    Uiso  ? H
   C777       1.0     0.586026     0.349667     0.384832    Uiso  ? C
   H486       1.0     0.585898     0.317863     0.354285    Uiso  ? H
   H487       1.0     0.594530     0.382656     0.415116    Uiso  ? H
   C778       1.0     0.556072     0.351460     0.386401    Uiso  ? C
   H488       1.0     0.549754     0.333784     0.398017    Uiso  ? H
   H489       1.0     0.548304     0.369848     0.398129    Uiso  ? H
   N2         1.0     0.544275     0.350824     0.359026    Uiso  ? N
   C779       1.0     0.543278     0.370794     0.340585    Uiso  ? C
   N3         1.0     0.529112     0.364308     0.317653    Uiso  ? N
   C780       1.0     0.519305     0.339210     0.323032    Uiso  ? C
   H490       1.0     0.507201     0.326489     0.308337    Uiso  ? H
   C781       1.0     0.531238     0.329074     0.346819    Uiso  ? C
   H491       1.0     0.528543     0.308389     0.354951    Uiso  ? H
   N4         1.0     0.667850     0.270953     0.428079    Uiso  ? N
   C782       1.0     0.693497     0.277952     0.432820    Uiso  ? C
   H492       1.0     0.706858     0.265284     0.444639    Uiso  ? H
   H493       1.0     0.636790     0.289646     0.404655    Uiso  ? H
   H494       1.0     0.556562     0.387602     0.341284    Uiso  ? H
   C783       1.0     0.542690     0.831578     0.202856    Uiso  ? C
   H495       1.0     0.537597     0.825312     0.182370    Uiso  ? H
   C784       1.0     0.563319     0.848167     0.237389    Uiso  ? C
   N5         1.0     0.564330     0.846118     0.210107    Uiso  ? N
   C785       1.0     0.585165     0.855769     0.191916    Uiso  ? C
   H496       1.0     0.574473     0.871452     0.177589    Uiso  ? H
   H497       1.0     0.601480     0.866360     0.203591    Uiso  ? H
   C786       1.0     0.599196     0.833229     0.175542    Uiso  ? C
   C787       1.0     0.607969     0.809034     0.188222    Uiso  ? C
   C788       1.0     0.603212     0.834879     0.147540    Uiso  ? C
   C789       1.0     0.620130     0.788136     0.173710    Uiso  ? C
   H498       1.0     0.606459     0.808668     0.210592    Uiso  ? H
   C790       1.0     0.618404     0.815606     0.133520    Uiso  ? C
   H499       1.0     0.596542     0.853243     0.137761    Uiso  ? H
   C791       1.0     0.628924     0.791992     0.146576    Uiso  ? C
   H500       1.0     0.622912     0.770349     0.186723    Uiso  ? H
   H501       1.0     0.620802     0.819026     0.112929    Uiso  ? H
   C792       1.0     0.645109     0.769453     0.133984    Uiso  ? C
   H502       1.0     0.661379     0.778794     0.121220    Uiso  ? H
   H503       1.0     0.655456     0.757835     0.149895    Uiso  ? H
   N6         1.0     0.626786     0.753995     0.115756    Uiso  ? N
   C793       1.0     0.613429     0.731199     0.122561    Uiso  ? C
   N7         1.0     0.597726     0.720486     0.103059    Uiso  ? N
   C794       1.0     0.601452     0.736824     0.883500    Uiso  ? C
   H504       1.0     0.592615     0.734109     0.864913    Uiso  ? H
   C795       1.0     0.618315     0.758245     0.891829    Uiso  ? C
   H505       1.0     0.624079     0.774903     0.880270    Uiso  ? H
   N8         1.0     0.540123     0.836926     0.247575    Uiso  ? N
   C796       1.0     0.526616     0.827283     0.225094    Uiso  ? C
   H506       1.0     0.508129     0.816595     0.225263    Uiso  ? H
   H507       1.0     0.576724     0.861521     0.249868    Uiso  ? H
   H508       1.0     0.614660     0.723581     0.143293    Uiso  ? H
   C797       1.0     0.415403     0.624234     0.628812    Uiso  ? C
   H509       1.0     0.411679     0.642498     0.617632    Uiso  ? H
   C798       1.0     0.418733     0.581425     0.636889    Uiso  ? C
   N9         1.0     0.409606     0.599549     0.618925    Uiso  ? N
   C799       1.0     0.401640     0.593801     0.590980    Uiso  ? C
   H510       1.0     0.418185     0.603578     0.577359    Uiso  ? H
   H511       1.0     0.401324     0.571346     0.589345    Uiso  ? H
   C800       1.0     0.373537     0.603521     0.584328    Uiso  ? C
   C801       1.0     0.367411     0.618658     0.561164    Uiso  ? C
   C802       1.0     0.352657     0.600538     0.603751    Uiso  ? C
   C803       1.0     0.341723     0.630080     0.557377    Uiso  ? C
   H512       1.0     0.381965     0.619799     0.544943    Uiso  ? H
   C804       1.0     0.327234     0.613696     0.600480    Uiso  ? C
   H513       1.0     0.354726     0.588999     0.623134    Uiso  ? H
   C805       1.0     0.320742     0.627915     0.577778    Uiso  ? C
   H514       1.0     0.338042     0.640532     0.538928    Uiso  ? H
   H515       1.0     0.311518     0.611123     0.615727    Uiso  ? H
   C806       1.0     0.293633     0.643968     0.577603    Uiso  ? C
   H516       1.0     0.283729     0.639682     0.557658    Uiso  ? H
   H517       1.0     0.279690     0.637777     0.595091    Uiso  ? H
   N10        1.0     0.298466     0.673046     0.579719    Uiso  ? N
   C807       1.0     0.314742     0.688888     0.564407    Uiso  ? C
   N11        1.0     0.317272     0.713439     0.574232    Uiso  ? N
   C808       1.0     0.299221     0.715678     0.594214    Uiso  ? C
   H518       1.0     0.296774     0.732349     0.608797    Uiso  ? H
   C809       1.0     0.287347     0.689958     0.597944    Uiso  ? C
   H519       1.0     0.275373     0.684167     0.615352    Uiso  ? H
   N12        1.0     0.429017     0.593285     0.658846    Uiso  ? N
   C810       1.0     0.427734     0.620396     0.652952    Uiso  ? C
   H520       1.0     0.434680     0.636311     0.667175    Uiso  ? H
   H521       1.0     0.421163     0.558783     0.634150    Uiso  ? H
   H522       1.0     0.325859     0.680232     0.547976    Uiso  ? H
   C811       1.0     0.452886     0.147148     0.788102    Uiso  ? C
   H523       1.0     0.460078     0.155242     0.807489    Uiso  ? H
   C812       1.0     0.433708     0.125263     0.756776    Uiso  ? C
   N13        1.0     0.434120     0.128046     0.784125    Uiso  ? N
   C813       1.0     0.417494     0.113252     0.803768    Uiso  ? C
   H524       1.0     0.406063     0.892906     0.790785    Uiso  ? H
   H525       1.0     0.431791     0.104458     0.820038    Uiso  ? H
   C814       1.0     0.396363     0.131596     0.816062    Uiso  ? C
   C815       1.0     0.372231     0.137250     0.801465    Uiso  ? C
   C816       1.0     0.401271     0.147443     0.839557    Uiso  ? C
   C817       1.0     0.353902     0.155702     0.811031    Uiso  ? C
   H526       1.0     0.367388     0.126489     0.783662    Uiso  ? H
   C818       1.0     0.382038     0.166002     0.849516    Uiso  ? C
   H527       1.0     0.420674     0.144780     0.848594    Uiso  ? H
   C819       1.0     0.358152     0.171711     0.835254    Uiso  ? C
   H528       1.0     0.334070     0.157600     0.800015    Uiso  ? H
   H529       1.0     0.388414     0.177481     0.868828    Uiso  ? H
   C820       1.0     0.338998     0.193135     0.844537    Uiso  ? C
   H530       1.0     0.330454     0.203984     0.827082    Uiso  ? H
   H531       1.0     0.324361     0.181361     0.856040    Uiso  ? H
   N14        1.0     0.350196     0.213373     0.862377    Uiso  ? N
   C821       1.0     0.368174     0.231454     0.853232    Uiso  ? C
   N15        1.0     0.370986     0.251530     0.871378    Uiso  ? N
   C822       1.0     0.354739     0.245647     0.893072    Uiso  ? C
   H532       1.0     0.350464     0.261526     0.108351    Uiso  ? H
   C823       1.0     0.341187     0.221860     0.887098    Uiso  ? C
   H533       1.0     0.323299     0.213972     0.898749    Uiso  ? H
   N16        1.0     0.453887     0.139093     0.744291    Uiso  ? N
   C824       1.0     0.464725     0.153919     0.764200    Uiso  ? C
   H534       1.0     0.481052     0.168038     0.762847    Uiso  ? H
   H535       1.0     0.422914     0.109137     0.745582    Uiso  ? H
   H536       1.0     0.378077     0.231554     0.833626    Uiso  ? H
   C825       1.0     0.805082     0.241794     0.598955    Uiso  ? C
   H537       1.0     0.787549     0.232035     0.606466    Uiso  ? H
   C826       1.0     0.842402     0.247379     0.578360    Uiso  ? C
   N17        1.0     0.827645     0.227962     0.591049    Uiso  ? N
   C827       1.0     0.831726     0.198664     0.590655    Uiso  ? C
   H538       1.0     0.824589     0.191036     0.570330    Uiso  ? H
   H539       1.0     0.853852     0.194717     0.589832    Uiso  ? H
   C828       1.0     0.820122     0.181130     0.613309    Uiso  ? C
   C829       1.0     0.807996     0.155554     0.607360    Uiso  ? C
   C830       1.0     0.819961     0.189677     0.641492    Uiso  ? C
   C831       1.0     0.794534     0.140820     0.626950    Uiso  ? C
   H540       1.0     0.806826     0.145986     0.587851    Uiso  ? H
   C832       1.0     0.806580     0.173447     0.660517    Uiso  ? C
   H541       1.0     0.827726     0.209428     0.649344    Uiso  ? H
   C833       1.0     0.793764     0.149937     0.653795    Uiso  ? C
   H542       1.0     0.785025     0.122217     0.619687    Uiso  ? H
   H543       1.0     0.805782     0.179221     0.681003    Uiso  ? H
   C834       1.0     0.779484     0.133315     0.675783    Uiso  ? C
   H544       1.0     0.782304     0.112199     0.670846    Uiso  ? H
   H545       1.0     0.785914     0.136530     0.696743    Uiso  ? H
   N18        1.0     0.750030     0.138805     0.674676    Uiso  ? N
   C835       1.0     0.733506     0.131961     0.654126    Uiso  ? C
   N19        1.0     0.708068     0.137333     0.660426    Uiso  ? N
   C836       1.0     0.707834     0.148663     0.684968    Uiso  ? C
   H546       1.0     0.690425     0.153651     0.697251    Uiso  ? H
   C837       1.0     0.734903     0.149019     0.694104    Uiso  ? C
   H547       1.0     0.742594     0.155220     0.712571    Uiso  ? H
   N20        1.0     0.830713     0.271727     0.580559    Uiso  ? N
   C838       1.0     0.806083     0.267879     0.589930    Uiso  ? C
   H548       1.0     0.791344     0.283296     0.591435    Uiso  ? H
   H549       1.0     0.862299     0.243629     0.569708    Uiso  ? H
   H550       1.0     0.739134     0.120093     0.635928    Uiso  ? H
   C839       1.0     0.556933     0.602737     0.436253    Uiso  ? C
   H551       1.0     0.566477     0.586696     0.448298    Uiso  ? H
   C840       1.0     0.542744     0.628780     0.404265    Uiso  ? C
   N21        1.0     0.556499     0.605562     0.409061    Uiso  ? N
   C841       1.0     0.572627     0.590814     0.388048    Uiso  ? C
   H552       1.0     0.580422     0.571019     0.396013    Uiso  ? H
   H553       1.0     0.559301     0.583653     0.371467    Uiso  ? H
   C842       1.0     0.596010     0.607407     0.378901    Uiso  ? C
   C843       1.0     0.616306     0.614552     0.396103    Uiso  ? C
   C844       1.0     0.596672     0.619212     0.352153    Uiso  ? C
   C845       1.0     0.638321     0.631176     0.388643    Uiso  ? C
   H554       1.0     0.617764     0.607801     0.416115    Uiso  ? H
   C846       1.0     0.618877     0.634516     0.344583    Uiso  ? C
   H555       1.0     0.581246     0.614406     0.338464    Uiso  ? H
   C847       1.0     0.639523     0.641416     0.362494    Uiso  ? C
   H556       1.0     0.653815     0.638392     0.403037    Uiso  ? H
   H557       1.0     0.619594     0.641816     0.324167    Uiso  ? H
   C848       1.0     0.664408     0.657186     0.354539    Uiso  ? C
   H558       1.0     0.662971     0.666401     0.332819    Uiso  ? H
   H559       1.0     0.669133     0.672720     0.369985    Uiso  ? H
   N22        1.0     0.688425     0.639269     0.353725    Uiso  ? N
   C849       1.0     0.706433     0.633357     0.373406    Uiso  ? C
   N23        1.0     0.724539     0.615056     0.365047    Uiso  ? N
   C850       1.0     0.719863     0.610453     0.338805    Uiso  ? C
   H560       1.0     0.729591     0.596189     0.325712    Uiso  ? H
   C851       1.0     0.697558     0.625809     0.331858    Uiso  ? C
   H561       1.0     0.686074     0.624043     0.312532    Uiso  ? H
   N24        1.0     0.534970     0.640386     0.427037    Uiso  ? N
   C852       1.0     0.543035     0.624258     0.447340    Uiso  ? C
   H562       1.0     0.542627     0.628853     0.469951    Uiso  ? H
   H563       1.0     0.541449     0.638849     0.384590    Uiso  ? H
   H564       1.0     0.704973     0.640055     0.394200    Uiso  ? H
   C853       1.0     0.321154     0.397726     0.712053    Uiso  ? C
   H565       1.0     0.326423     0.383527     0.728987    Uiso  ? H
   C854       1.0     0.326990     0.419950     0.673785    Uiso  ? C
   N25        1.0     0.339615     0.404108     0.692550    Uiso  ? N
   C855       1.0     0.367975     0.395525     0.693501    Uiso  ? C
   H566       1.0     0.376982     0.408796     0.708963    Uiso  ? H
   H567       1.0     0.370221     0.375746     0.701959    Uiso  ? H
   C856       1.0     0.383356     0.397618     0.666451    Uiso  ? C
   C857       1.0     0.374192     0.382183     0.643277    Uiso  ? C
   C858       1.0     0.407165     0.412144     0.663811    Uiso  ? C
   C859       1.0     0.387190     0.384394     0.618085    Uiso  ? C
   H568       1.0     0.356087     0.369387     0.644249    Uiso  ? H
   C860       1.0     0.421287     0.413592     0.639453    Uiso  ? C
   H569       1.0     0.414345     0.422800     0.681535    Uiso  ? H
   C861       1.0     0.410307     0.401582     0.615481    Uiso  ? C
   H570       1.0     0.378629     0.372386     0.600391    Uiso  ? H
   H571       1.0     0.439420     0.425783     0.639587    Uiso  ? H
   C862       1.0     0.421927     0.405306     0.586728    Uiso  ? C
   H572       1.0     0.405480     0.403590     0.571623    Uiso  ? H
   H573       1.0     0.428725     0.425546     0.585024    Uiso  ? H
   N26        1.0     0.444518     0.385600     0.583020    Uiso  ? N
   C863       1.0     0.443003     0.358674     0.579743    Uiso  ? C
   N27        1.0     0.466910     0.348901     0.570186    Uiso  ? N
   C864       1.0     0.483156     0.370376     0.568600    Uiso  ? C
   H574       1.0     0.503294     0.369900     0.559284    Uiso  ? H
   C865       1.0     0.469950     0.393224     0.577400    Uiso  ? C
   H575       1.0     0.477463     0.412977     0.581851    Uiso  ? H
   N28        1.0     0.300448     0.420835     0.678495    Uiso  ? N
   C866       1.0     0.296766     0.408126     0.703369    Uiso  ? C
   H576       1.0     0.276833     0.404871     0.712100    Uiso  ? H
   H577       1.0     0.336834     0.429525     0.657070    Uiso  ? H
   H578       1.0     0.424384     0.347161     0.582943    Uiso  ? H
   C867       1.0     0.203474     0.796585     0.469592    Uiso  ? C
   H579       1.0     0.214958     0.814128     0.467876    Uiso  ? H
   C868       1.0     0.170052     0.770310     0.464325    Uiso  ? C
   N29        1.0     0.179720     0.795011     0.456952    Uiso  ? N
   C869       1.0     0.166548     0.814965     0.437943    Uiso  ? C
   H580       1.0     0.144924     0.809131     0.433238    Uiso  ? H
   H581       1.0     0.164372     0.835344     0.447665    Uiso  ? H
   C870       1.0     0.181067     0.815724     0.410740    Uiso  ? C
   C871       1.0     0.181487     0.839828     0.396639    Uiso  ? C
   C872       1.0     0.192424     0.793119     0.399337    Uiso  ? C
   C873       1.0     0.194071     0.841121     0.370890    Uiso  ? C
   H582       1.0     0.172933     0.857984     0.404665    Uiso  ? H
   C874       1.0     0.201368     0.792987     0.372630    Uiso  ? C
   H583       1.0     0.192737     0.772002     0.410702    Uiso  ? H
   C875       1.0     0.203523     0.817596     0.357717    Uiso  ? C
   H584       1.0     0.194043     0.860398     0.359912    Uiso  ? H
   H585       1.0     0.210975     0.774406     0.365540    Uiso  ? H
   C876       1.0     0.216152     0.818465     0.329568    Uiso  ? C
   H586       1.0     0.220952     0.798688     0.321054    Uiso  ? H
   H587       1.0     0.201608     0.827937     0.316053    Uiso  ? H
   N30        1.0     0.239988     0.835497     0.330305    Uiso  ? N
   C877       1.0     0.260561     0.832786     0.348358    Uiso  ? C
   N31        1.0     0.281509     0.848827     0.342606    Uiso  ? N
   C878       1.0     0.274388     0.862472     0.319667    Uiso  ? C
   H588       1.0     0.286927     0.876551     0.306863    Uiso  ? H
   C879       1.0     0.248882     0.853850     0.312275    Uiso  ? C
   H589       1.0     0.236471     0.861379     0.295797    Uiso  ? H
   N32        1.0     0.186738     0.758253     0.483210    Uiso  ? N
   C880       1.0     0.207042     0.774987     0.487159    Uiso  ? C
   H590       1.0     0.225040     0.768995     0.498688    Uiso  ? H
   H591       1.0     0.150532     0.762936     0.459344    Uiso  ? H
   H592       1.0     0.259347     0.818693     0.364710    Uiso  ? H
   C881       1.0     0.753652     0.520970     0.209650    Uiso  ? C
   H593       1.0     0.775786     0.528005     0.210714    Uiso  ? H
   C882       1.0     0.717394     0.499991     0.219961    Uiso  ? C
   N33        1.0     0.742901     0.505264     0.228873    Uiso  ? N
   C883       1.0     0.753997     0.499500     0.255165    Uiso  ? C
   H594       1.0     0.772383     0.511565     0.259407    Uiso  ? H
   H595       1.0     0.740161     0.506330     0.271874    Uiso  ? H
   C884       1.0     0.762564     0.470866     0.257202    Uiso  ? C
   C885       1.0     0.752635     0.452173     0.278260    Uiso  ? C
   C886       1.0     0.781360     0.461410     0.238686    Uiso  ? C
   C887       1.0     0.762395     0.425085     0.278798    Uiso  ? C
   H596       1.0     0.735583     0.457684     0.291909    Uiso  ? H
   C888       1.0     0.790099     0.434474     0.238217    Uiso  ? C
   H597       1.0     0.789025     0.476159     0.224018    Uiso  ? H
   C889       1.0     0.780584     0.415897     0.258144    Uiso  ? C
   H598       1.0     0.753366     0.412634     0.295328    Uiso  ? H
   H599       1.0     0.802753     0.427619     0.222300    Uiso  ? H
   C890       1.0     0.788064     0.385614     0.256174    Uiso  ? C
   H600       1.0     0.769201     0.373005     0.252030    Uiso  ? H
   H601       1.0     0.802777     0.380861     0.238751    Uiso  ? H
   N34        1.0     0.800976     0.376233     0.282494    Uiso  ? N
   C891       1.0     0.815523     0.391064     0.300035    Uiso  ? C
   N35        1.0     0.823149     0.377383     0.322644    Uiso  ? N
   C892       1.0     0.813506     0.352130     0.318536    Uiso  ? C
   H602       1.0     0.816516     0.334540     0.333954    Uiso  ? H
   C893       1.0     0.800148     0.350733     0.293180    Uiso  ? C
   H603       1.0     0.786002     0.333374     0.286199    Uiso  ? H
   N36        1.0     0.712133     0.510903     0.195780    Uiso  ? N
   C894       1.0     0.736214     0.523705     0.188544    Uiso  ? C
   H604       1.0     0.739493     0.534213     0.168169    Uiso  ? H
   H605       1.0     0.703014     0.488470     0.231884    Uiso  ? H
   H606       1.0     0.818150     0.412991     0.299166    Uiso  ? H
   C895       1.0     0.424455     0.630120     0.344407    Uiso  ? C
   H607       1.0     0.411596     0.640735     0.358269    Uiso  ? H
   C896       1.0     0.462033     0.614999     0.326338    Uiso  ? C
   N37        1.0     0.451340     0.626496     0.348900    Uiso  ? N
   C897       1.0     0.466398     0.634593     0.373390    Uiso  ? C
   H608       1.0     0.489806     0.633962     0.370356    Uiso  ? H
   H609       1.0     0.461446     0.655463     0.378267    Uiso  ? H
   C898       1.0     0.459982     0.618264     0.397772    Uiso  ? C
   C899       1.0     0.436224     0.624047     0.413530    Uiso  ? C
   C900       1.0     0.477371     0.597044     0.405676    Uiso  ? C
   C901       1.0     0.428205     0.607149     0.434617    Uiso  ? C
   H610       1.0     0.423060     0.641544     0.406673    Uiso  ? H
   C902       1.0     0.470120     0.581602     0.428215    Uiso  ? C
   H611       1.0     0.495199     0.595511     0.394629    Uiso  ? H
   C903       1.0     0.445123     0.585273     0.441658    Uiso  ? C
   H612       1.0     0.410692     0.612057     0.446067    Uiso  ? H
   H613       1.0     0.483436     0.565123     0.433202    Uiso  ? H
   C904       1.0     0.435692     0.566688     0.464940    Uiso  ? C
   H614       1.0     0.450029     0.549549     0.470126    Uiso  ? H
   H615       1.0     0.434236     0.579866     0.484118    Uiso  ? H
   N38        1.0     0.408396     0.556341     0.458905    Uiso  ? N
   C905       1.0     0.385502     0.557933     0.475429    Uiso  ? C
   N39        1.0     0.365074     0.547727     0.461801    Uiso  ? N
   C906       1.0     0.373888     0.538452     0.437380    Uiso  ? C
   H616       1.0     0.361228     0.529721     0.420960    Uiso  ? H
   C907       1.0     0.401866     0.542594     0.437760    Uiso  ? C
   H617       1.0     0.415618     0.535936     0.421896    Uiso  ? H
   N40        1.0     0.443744     0.610930     0.307314    Uiso  ? N
   C908       1.0     0.420272     0.619131     0.318977    Uiso  ? C
   H618       1.0     0.401604     0.622374     0.309083    Uiso  ? H
   H619       1.0     0.482646     0.610812     0.321994    Uiso  ? H
   H620       1.0     0.385380     0.563695     0.496264    Uiso  ? H
   C909       1.0     0.225267     0.488310     0.746685    Uiso  ? C
   H621       1.0     0.216246     0.490901     0.725556    Uiso  ? H
   C910       1.0     0.230406     0.489885     0.790031    Uiso  ? C
   N41        1.0     0.215694     0.498661     0.769233    Uiso  ? N
   C911       1.0     0.191870     0.514663     0.771316    Uiso  ? C
   H622       1.0     0.181445     0.514688     0.751337    Uiso  ? H
   H623       1.0     0.177720     0.505234     0.785938    Uiso  ? H
   C912       1.0     0.198248     0.543029     0.780764    Uiso  ? C
   C913       1.0     0.224264     0.554708     0.780667    Uiso  ? C
   C914       1.0     0.176746     0.559094     0.791495    Uiso  ? C
   C915       1.0     0.228211     0.580952     0.785767    Uiso  ? C
   H624       1.0     0.241430     0.543431     0.774112    Uiso  ? H
   C916       1.0     0.182105     0.585527     0.800949    Uiso  ? C
   H625       1.0     0.155844     0.550089     0.795715    Uiso  ? H
   C917       1.0     0.208465     0.596772     0.797595    Uiso  ? C
   H626       1.0     0.248532     0.590461     0.783160    Uiso  ? H
   H627       1.0     0.164713     0.597409     0.807828    Uiso  ? H
   C918       1.0     0.216112     0.625996     0.803623    Uiso  ? C
   H628       1.0     0.202826     0.634118     0.819821    Uiso  ? H
   H629       1.0     0.237338     0.625562     0.811829    Uiso  ? H
   N42        1.0     0.211968     0.641588     0.776866    Uiso  ? N
   C919       1.0     0.191230     0.639757     0.760155    Uiso  ? C
   N43        1.0     0.198603     0.646642     0.734534    Uiso  ? N
   C920       1.0     0.225308     0.653062     0.736187    Uiso  ? C
   H630       1.0     0.238953     0.658888     0.721018    Uiso  ? H
   C921       1.0     0.234441     0.648222     0.762285    Uiso  ? C
   H631       1.0     0.255438     0.650439     0.771063    Uiso  ? H
   N44        1.0     0.251458     0.474257     0.780720    Uiso  ? N
   C922       1.0     0.248104     0.473631     0.753564    Uiso  ? C
   H632       1.0     0.259436     0.461895     0.739233    Uiso  ? H
   H633       1.0     0.226540     0.495794     0.810933    Uiso  ? H
   H634       1.0     0.172276     0.629899     0.765621    Uiso  ? H
   C923       1.0     0.515575     0.328998     0.630249    Uiso  ? C
   H635       1.0     0.506043     0.324499     0.611788    Uiso  ? H
   C924       1.0     0.547672     0.343837     0.656639    Uiso  ? C
   N45        1.0     0.543000     0.332227     0.631411    Uiso  ? N
   C925       1.0     0.560795     0.331825     0.607230    Uiso  ? C
   H636       1.0     0.575502     0.316822     0.610430    Uiso  ? H
   H637       1.0     0.547922     0.321325     0.591824    Uiso  ? H
   C926       1.0     0.569134     0.359228     0.597644    Uiso  ? C
   C927       1.0     0.595752     0.363742     0.587920    Uiso  ? C
   C928       1.0     0.550474     0.380365     0.598001    Uiso  ? C
   C929       1.0     0.601514     0.388217     0.576273    Uiso  ? C
   H638       1.0     0.611269     0.348718     0.587692    Uiso  ? H
   C930       1.0     0.556001     0.403907     0.583859    Uiso  ? C
   H639       1.0     0.529270     0.377149     0.602748    Uiso  ? H
   C931       1.0     0.581876     0.409145     0.573652    Uiso  ? C
   H640       1.0     0.621399     0.388920     0.569359    Uiso  ? H
   H641       1.0     0.538988     0.417535     0.580370    Uiso  ? H
   C932       1.0     0.589173     0.433783     0.556640    Uiso  ? C
   H642       1.0     0.591596     0.427493     0.535682    Uiso  ? H
   H643       1.0     0.571819     0.448399     0.558259    Uiso  ? H
   N46        1.0     0.613450     0.447944     0.567828    Uiso  ? N
   C933       1.0     0.637811     0.448386     0.556431    Uiso  ? C
   N47        1.0     0.654605     0.464677     0.570084    Uiso  ? N
   C934       1.0     0.641119     0.473483     0.592773    Uiso  ? C
   H644       1.0     0.651131     0.484180     0.608572    Uiso  ? H
   C935       1.0     0.615403     0.463422     0.590547    Uiso  ? C
   H645       1.0     0.600138     0.465081     0.606147    Uiso  ? H
   N48        1.0     0.524695     0.347354     0.670840    Uiso  ? N
   C936       1.0     0.504870     0.337874     0.654613    Uiso  ? C
   H646       1.0     0.483765     0.340871     0.659039    Uiso  ? H
   H647       1.0     0.568479     0.350883     0.663112    Uiso  ? H
   H648       1.0     0.643294     0.438463     0.538403    Uiso  ? H
   C937       1.0     0.867418     0.629868     0.786805    Uiso  ? C
   H649       1.0     0.867943     0.617921     0.767891    Uiso  ? H
   C938       1.0     0.850695     0.647207     0.822572    Uiso  ? C
   N49        1.0     0.849576     0.625186     0.806693    Uiso  ? N
   C939       1.0     0.834126     0.600353     0.810594    Uiso  ? C
   H650       1.0     0.847241     0.581697     0.808724    Uiso  ? H
   H651       1.0     0.824156     0.602891     0.829912    Uiso  ? H
   C940       1.0     0.811935     0.598110     0.789434    Uiso  ? C
   C941       1.0     0.816059     0.583582     0.765653    Uiso  ? C
   C942       1.0     0.786749     0.613151     0.793079    Uiso  ? C
   C943       1.0     0.796513     0.585850     0.744888    Uiso  ? C
   H652       1.0     0.831448     0.567687     0.762924    Uiso  ? H
   C944       1.0     0.768137     0.614161     0.772789    Uiso  ? C
   H653       1.0     0.785027     0.626861     0.809784    Uiso  ? H
   C945       1.0     0.772927     0.600361     0.749316    Uiso  ? C
   H654       1.0     0.799531     0.576065     0.726479    Uiso  ? H
   H655       1.0     0.750287     0.627221     0.775676    Uiso  ? H
   C946       1.0     0.752393     0.600889     0.726358    Uiso  ? C
   H656       1.0     0.740986     0.620238     0.726374    Uiso  ? H
   H657       1.0     0.762998     0.599168     0.705962    Uiso  ? H
   N50        1.0     0.732109     0.578412     0.731651    Uiso  ? N
   C947       1.0     0.710709     0.576849     0.747958    Uiso  ? C
   N51        1.0     0.697505     0.552075     0.746356    Uiso  ? N
   C948       1.0     0.712013     0.537549     0.727277    Uiso  ? C
   H658       1.0     0.705274     0.519441     0.718276    Uiso  ? H
   C949       1.0     0.733225     0.553395     0.718845    Uiso  ? C
   H659       1.0     0.749116     0.546599     0.703200    Uiso  ? H
   N52        1.0     0.867166     0.666326     0.811898    Uiso  ? N
   C950       1.0     0.877026     0.655121     0.788941    Uiso  ? C
   H660       1.0     0.892340     0.664496     0.776145    Uiso  ? H
   H661       1.0     0.840950     0.648602     0.841559    Uiso  ? H
   H662       1.0     0.703940     0.592755     0.762382    Uiso  ? H
   C951       1.0     0.672273     0.247589     0.891703    Uiso  ? C
   H663       1.0     0.691402     0.237958     0.882603    Uiso  ? H
   C952       1.0     0.633440     0.253654     0.109109    Uiso  ? C
   N53        1.0     0.653495     0.235962     0.105815    Uiso  ? N
   C953       1.0     0.653895     0.207576     0.113508    Uiso  ? C
   H664       1.0     0.639689     0.195350     0.100313    Uiso  ? H
   H665       1.0     0.673745     0.200090     0.110441    Uiso  ? H
   C954       1.0     0.648881     0.203320     0.143726    Uiso  ? C
   C955       1.0     0.638345     0.179132     0.152158    Uiso  ? C
   C956       1.0     0.652023     0.224266     0.162984    Uiso  ? C
   C957       1.0     0.633911     0.174015     0.180207    Uiso  ? C
   H666       1.0     0.631352     0.164035     0.137277    Uiso  ? H
   C958       1.0     0.646435     0.219830     0.190832    Uiso  ? C
   H667       1.0     0.661543     0.242179     0.156573    Uiso  ? H
   C959       1.0     0.637821     0.194719     0.199388    Uiso  ? C
   H668       1.0     0.626205     0.154606     0.187072    Uiso  ? H
   H669       1.0     0.652157     0.235231     0.206170    Uiso  ? H
   C960       1.0     0.635413     0.189200     0.228997    Uiso  ? C
   H670       1.0     0.625241     0.207383     0.239923    Uiso  ? H
   H671       1.0     0.621827     0.170541     0.231202    Uiso  ? H
   N54        1.0     0.663284     0.184778     0.239592    Uiso  ? N
   C961       1.0     0.682829     0.173001     0.226121    Uiso  ? C
   N55        1.0     0.707532     0.180517     0.235027    Uiso  ? N
   C962       1.0     0.702953     0.199048     0.253994    Uiso  ? C
   H672       1.0     0.718013     0.210492     0.266108    Uiso  ? H
   C963       1.0     0.675828     0.200875     0.257352    Uiso  ? C
   H673       1.0     0.665761     0.215207     0.268792    Uiso  ? H
   N56        1.0     0.637720     0.274852     0.896441    Uiso  ? N
   C964       1.0     0.662128     0.271205     0.884453    Uiso  ? C
   H674       1.0     0.673452     0.285039     0.871070    Uiso  ? H
   H675       1.0     0.614966     0.249381     0.119686    Uiso  ? H
   H676       1.0     0.678969     0.158842     0.210562    Uiso  ? H
   C965       1.0     0.336884     0.813667     0.721791    Uiso  ? C
   H677       1.0     0.357819     0.808554     0.717288    Uiso  ? H
   C966       1.0     0.294379     0.810445     0.732808    Uiso  ? C
   N57        1.0     0.316127     0.795862     0.723783    Uiso  ? N
   C967       1.0     0.319118     0.766676     0.719917    Uiso  ? C
   H678       1.0     0.307199     0.762040     0.700869    Uiso  ? H
   H679       1.0     0.340284     0.761774     0.713738    Uiso  ? H
   C968       1.0     0.308007     0.750663     0.745095    Uiso  ? C
   C969       1.0     0.320415     0.754481     0.770726    Uiso  ? C
   C970       1.0     0.284206     0.735029     0.742658    Uiso  ? C
   C971       1.0     0.307908     0.742566     0.793438    Uiso  ? C
   H680       1.0     0.337865     0.768698     0.773556    Uiso  ? H
   C972       1.0     0.273568     0.722529     0.765215    Uiso  ? C
   H681       1.0     0.272610     0.734939     0.724307    Uiso  ? H
   C973       1.0     0.286529     0.724174     0.790310    Uiso  ? C
   H682       1.0     0.314308     0.747043     0.813820    Uiso  ? H
   H683       1.0     0.253523     0.711814     0.764076    Uiso  ? H
   C974       1.0     0.273475     0.710468     0.813041    Uiso  ? C
   H684       1.0     0.257735     0.724022     0.820736    Uiso  ? H
   H685       1.0     0.264829     0.691865     0.806608    Uiso  ? H
   N58        1.0     0.293016     0.705552     0.835094    Uiso  ? N
   C975       1.0     0.311631     0.685166     0.836229    Uiso  ? C
   N59        1.0     0.323016     0.682620     0.860544    Uiso  ? N
   C976       1.0     0.310677     0.700724     0.875632    Uiso  ? C
   H686       1.0     0.313447     0.702801     0.898924    Uiso  ? H
   C977       1.0     0.291495     0.713833     0.861189    Uiso  ? C
   H687       1.0     0.276677     0.728135     0.866560    Uiso  ? H
   N60        1.0     0.301808     0.836341     0.737503    Uiso  ? N
   C978       1.0     0.327975     0.838126     0.730914    Uiso  ? C
   H688       1.0     0.341262     0.854882     0.733531    Uiso  ? H
   H689       1.0     0.275329     0.803476     0.737507    Uiso  ? H
   H690       1.0     0.320793     0.675859     0.818257    Uiso  ? H
   C979       1.0     0.251641     0.405107     0.273287    Uiso  ? C
   H691       1.0     0.240756     0.389499     0.284887    Uiso  ? H
   C980       1.0     0.259793     0.440697     0.250700    Uiso  ? C
   N61        1.0     0.242610     0.430455     0.268678    Uiso  ? N
   C981       1.0     0.218293     0.443552     0.278024    Uiso  ? C
   H692       1.0     0.211844     0.436949     0.299119    Uiso  ? H
   H693       1.0     0.220822     0.466675     0.279243    Uiso  ? H
   C982       1.0     0.196231     0.438370     0.257289    Uiso  ? C
   C983       1.0     0.193933     0.453211     0.234010    Uiso  ? C
   C984       1.0     0.177385     0.418707     0.263332    Uiso  ? C
   C985       1.0     0.173758     0.446975     0.214840    Uiso  ? C
   H694       1.0     0.206554     0.470665     0.231226    Uiso  ? H
   C986       1.0     0.156198     0.412636     0.245866    Uiso  ? C
   H695       1.0     0.179068     0.406217     0.282311    Uiso  ? H
   C987       1.0     0.153650     0.427393     0.220808    Uiso  ? C
   H696       1.0     0.172667     0.457323     0.195086    Uiso  ? H
   H697       1.0     0.145121     0.394715     0.250132    Uiso  ? H
   C988       1.0     0.133327     0.418717     0.201484    Uiso  ? C
   H698       1.0     0.114232     0.408715     0.211776    Uiso  ? H
   H699       1.0     0.124999     0.437629     0.191555    Uiso  ? H
   N62        1.0     0.146841     0.401141     0.183453    Uiso  ? N
   C989       1.0     0.142692     0.374337     0.181659    Uiso  ? C
   N63        1.0     0.157390     0.363350     0.161244    Uiso  ? N
   C990       1.0     0.167380     0.385580     0.147764    Uiso  ? C
   H700       1.0     0.178355     0.383186     0.129027    Uiso  ? H
   C991       1.0     0.163865     0.408890     0.163455    Uiso  ? C
   H701       1.0     0.165605     0.430033     0.158667    Uiso  ? H
   N64        1.0     0.281176     0.424695     0.245431    Uiso  ? N
   C992       1.0     0.275619     0.401704     0.259417    Uiso  ? C
   H702       1.0     0.289493     0.384946     0.259618    Uiso  ? H
   H703       1.0     0.257387     0.458732     0.238595    Uiso  ? H
   H704       1.0     0.131145     0.362073     0.195082    Uiso  ? H
   C993       1.0     0.572690     0.690880     0.707318    Uiso  ? C
   H705       1.0     0.569537     0.672273     0.718146    Uiso  ? H
   C994       1.0     0.584444     0.731565     0.697872    Uiso  ? C
   N65        1.0     0.587003     0.711230     0.716289    Uiso  ? N
   C995       1.0     0.601234     0.712781     0.742488    Uiso  ? C
   H706       1.0     0.592225     0.698689     0.758055    Uiso  ? H
   H707       1.0     0.623740     0.705826     0.740248    Uiso  ? H
   C996       1.0     0.598601     0.741409     0.753040    Uiso  ? C
   C997       1.0     0.574881     0.752103     0.766975    Uiso  ? C
   C998       1.0     0.621907     0.756950     0.754478    Uiso  ? C
   C999       1.0     0.574972     0.778513     0.778271    Uiso  ? C
   H708       1.0     0.556939     0.740399     0.770468    Uiso  ? H
   C1000      1.0     0.621951     0.782585     0.765122    Uiso  ? C
   H709       1.0     0.641078     0.748984     0.747060    Uiso  ? H
   C1001      1.0     0.598243     0.794889     0.775649    Uiso  ? C
   H710       1.0     0.557427     0.785508     0.788645    Uiso  ? H
   H711       1.0     0.640065     0.793567     0.766890    Uiso  ? H
   C1002      1.0     0.600118     0.823797     0.786902    Uiso  ? C
   H712       1.0     0.602901     0.838031     0.769343    Uiso  ? H
   H713       1.0     0.579086     0.830079     0.796035    Uiso  ? H
   N66        1.0     0.622122     0.826646     0.806858    Uiso  ? N
   C1003      1.0     0.647933     0.836463     0.802736    Uiso  ? C
   N67        1.0     0.663020     0.838055     0.825372    Uiso  ? N
   C1004      1.0     0.644012     0.832041     0.845161    Uiso  ? C
   H714       1.0     0.648680     0.831602     0.866387    Uiso  ? H
   C1005      1.0     0.620678     0.823962     0.833648    Uiso  ? C
   H715       1.0     0.603776     0.820514     0.846387    Uiso  ? H
   N68        1.0     0.569106     0.722464     0.677249    Uiso  ? N
   C1006      1.0     0.561553     0.697530     0.682485    Uiso  ? C
   H716       1.0     0.552241     0.683410     0.668907    Uiso  ? H
   H717       1.0     0.594850     0.750678     0.699547    Uiso  ? H
   H718       1.0     0.655769     0.842490     0.783081    Uiso  ? H
   C1007      1.0     0.231275     0.306221     0.686404    Uiso  ? C
   H719       1.0     0.250656     0.317098     0.681005    Uiso  ? H
   C1008      1.0     0.190262     0.290340     0.685052    Uiso  ? C
   N69        1.0     0.208465     0.305743     0.670668    Uiso  ? N
   C1009      1.0     0.205033     0.315945     0.643155    Uiso  ? C
   H720       1.0     0.183824     0.325021     0.644245    Uiso  ? H
   H721       1.0     0.221539     0.330858     0.638527    Uiso  ? H
   C1010      1.0     0.208936     0.293924     0.622083    Uiso  ? C
   C1011      1.0     0.234130     0.284685     0.614288    Uiso  ? C
   C1012      1.0     0.185057     0.278655     0.614424    Uiso  ? C
   C1013      1.0     0.235129     0.264513     0.594716    Uiso  ? C
   H722       1.0     0.253404     0.295270     0.621258    Uiso  ? H
   C1014      1.0     0.186460     0.258990     0.594515    Uiso  ? C
   H723       1.0     0.166349     0.284834     0.622584    Uiso  ? H
   C1015      1.0     0.211868     0.250255     0.585841    Uiso  ? C
   H724       1.0     0.254872     0.259034     0.586614    Uiso  ? H
   H725       1.0     0.167049     0.250320     0.585400    Uiso  ? H
   C1016      1.0     0.213903     0.232677     0.561524    Uiso  ? C
   H726       1.0     0.195031     0.222528     0.557611    Uiso  ? H
   H727       1.0     0.222867     0.242764     0.542918    Uiso  ? H
   N70        1.0     0.232390     0.211117     0.568246    Uiso  ? N
   C1017      1.0     0.256770     0.204788     0.557258    Uiso  ? C
   N71        1.0     0.265741     0.181089     0.565796    Uiso  ? N
   C1018      1.0     0.247452     0.171002     0.582350    Uiso  ? C
   H728       1.0     0.250624     0.153927     0.595577    Uiso  ? H
   C1019      1.0     0.228130     0.190274     0.585983    Uiso  ? C
   H729       1.0     0.210782     0.188135     0.600572    Uiso  ? H
   N72        1.0     0.200814     0.281723     0.708693    Uiso  ? N
   C1020      1.0     0.226788     0.289502     0.708548    Uiso  ? C
   H730       1.0     0.240914     0.287043     0.727005    Uiso  ? H
   H731       1.0     0.170143     0.283404     0.678972    Uiso  ? H
   H732       1.0     0.266837     0.216508     0.543810    Uiso  ? H
   C1021      1.0     0.394166     0.195050     0.146743    Uiso  ? C
   H733       1.0     0.416077     0.191839     0.142988    Uiso  ? H
   C1022      1.0     0.358371     0.215446     0.159125    Uiso  ? C
   N73        1.0     0.385618     0.219503     0.154182    Uiso  ? N
   C1023      1.0     0.402400     0.243020     0.160478    Uiso  ? C
   H734       1.0     0.423099     0.236860     0.161065    Uiso  ? H
   H735       1.0     0.401269     0.258007     0.142219    Uiso  ? H
   C1024      1.0     0.399342     0.255183     0.188027    Uiso  ? C
   C1025      1.0     0.394463     0.282945     0.190462    Uiso  ? C
   C1026      1.0     0.400329     0.239546     0.211924    Uiso  ? C
   C1027      1.0     0.389409     0.294915     0.215853    Uiso  ? C
   H736       1.0     0.398871     0.295416     0.172840    Uiso  ? H
   C1028      1.0     0.394325     0.251022     0.236566    Uiso  ? C
   H737       1.0     0.405710     0.218305     0.209853    Uiso  ? H
   C1029      1.0     0.390199     0.278846     0.238806    Uiso  ? C
   H738       1.0     0.389427     0.316791     0.215557    Uiso  ? H
   H739       1.0     0.394469     0.239339     0.254778    Uiso  ? H
   C1030      1.0     0.384978     0.290415     0.266183    Uiso  ? C
   H740       1.0     0.381340     0.312503     0.263287    Uiso  ? H
   H741       1.0     0.365151     0.282655     0.274729    Uiso  ? H
   N74        1.0     0.408118     0.287136     0.284666    Uiso  ? N
   C1031      1.0     0.409671     0.270454     0.306140    Uiso  ? C
   N75        1.0     0.433468     0.270123     0.316333    Uiso  ? N
   C1032      1.0     0.448329     0.288984     0.302319    Uiso  ? C
   H742       1.0     0.470171     0.293887     0.304524    Uiso  ? H
   C1033      1.0     0.431998     0.299550     0.283080    Uiso  ? C
   H743       1.0     0.436236     0.315713     0.267543    Uiso  ? H
   N76        1.0     0.350229     0.189907     0.153418    Uiso  ? N
   C1034      1.0     0.373092     0.177308     0.146068    Uiso  ? C
   H744       1.0     0.375504     0.155840     0.140358    Uiso  ? H
   H745       1.0     0.344996     0.230874     0.166919    Uiso  ? H
   H746       1.0     0.393429     0.256900     0.313184    Uiso  ? H
   C1035      1.0     0.768507     0.781311     0.427825    Uiso  ? C
   H747       1.0     0.790994     0.783234     0.425805    Uiso  ? H
   C1036      1.0     0.728186     0.763811     0.428038    Uiso  ? C
   N77        1.0     0.754166     0.758946     0.423861    Uiso  ? N
   C1037      1.0     0.764887     0.732755     0.412133    Uiso  ? C
   H748       1.0     0.786783     0.728052     0.419518    Uiso  ? H
   H749       1.0     0.753315     0.714468     0.418958    Uiso  ? H
   C1038      1.0     0.764109     0.733697     0.382048    Uiso  ? C
   C1039      1.0     0.742848     0.719209     0.368586    Uiso  ? C
   C1040      1.0     0.787577     0.741069     0.367390    Uiso  ? C
   C1041      1.0     0.746850     0.711286     0.341465    Uiso  ? C
   H750       1.0     0.727441     0.713008     0.380947    Uiso  ? H
   C1042      1.0     0.790052     0.734582     0.340143    Uiso  ? C
   H751       1.0     0.805007     0.750255     0.378929    Uiso  ? H
   C1043      1.0     0.768292     0.721904     0.326740    Uiso  ? C
   H752       1.0     0.730444     0.697928     0.334289    Uiso  ? H
   H753       1.0     0.806828     0.741916     0.329735    Uiso  ? H
   C1044      1.0     0.768158     0.717485     0.297030    Uiso  ? C
   H754       1.0     0.760131     0.696712     0.294963    Uiso  ? H
   H755       1.0     0.754353     0.731683     0.287724    Uiso  ? H
   N78        1.0     0.794936     0.717260     0.284447    Uiso  ? N
   C1045      1.0     0.805657     0.739766     0.273480    Uiso  ? C
   N79        1.0     0.830623     0.736732     0.263033    Uiso  ? N
   C1046      1.0     0.833862     0.709402     0.265133    Uiso  ? C
   H756       1.0     0.853170     0.699203     0.260351    Uiso  ? H
   C1047      1.0     0.811884     0.697012     0.278252    Uiso  ? C
   H757       1.0     0.810556     0.676663     0.285326    Uiso  ? H
   N80        1.0     0.725047     0.791293     0.434757    Uiso  ? N
   C1048      1.0     0.750616     0.801976     0.433563    Uiso  ? C
   H758       1.0     0.754602     0.822975     0.435555    Uiso  ? H
   H759       1.0     0.711040     0.750146     0.427128    Uiso  ? H
   H760       1.0     0.795778     0.759742     0.273113    Uiso  ? H
   C1049      1.0     0.823001     0.414597     0.798758    Uiso  ? C
   H761       1.0     0.823486     0.402770     0.817717    Uiso  ? H
   C1050      1.0     0.811852     0.444642     0.769783    Uiso  ? C
   N81        1.0     0.803135     0.432187     0.792988    Uiso  ? N
   C1051      1.0     0.780239     0.441316     0.809441    Uiso  ? C
   H762       1.0     0.788873     0.449075     0.829502    Uiso  ? H
   H763       1.0     0.768675     0.457522     0.799144    Uiso  ? H
   C1052      1.0     0.762099     0.418437     0.816324    Uiso  ? C
   C1053      1.0     0.743942     0.408461     0.797195    Uiso  ? C
   C1054      1.0     0.762422     0.408096     0.842436    Uiso  ? C
   C1055      1.0     0.726102     0.387925     0.805331    Uiso  ? C
   H764       1.0     0.743768     0.415600     0.775769    Uiso  ? H
   C1056      1.0     0.744318     0.388227     0.850588    Uiso  ? C
   H765       1.0     0.778535     0.413935     0.857445    Uiso  ? H
   C1057      1.0     0.724324     0.380016     0.831800    Uiso  ? C
   H766       1.0     0.711536     0.378790     0.790476    Uiso  ? H
   H767       1.0     0.746856     0.378315     0.870763    Uiso  ? H
   C1058      1.0     0.704652     0.357711     0.838864    Uiso  ? C
   H768       1.0     0.703820     0.357626     0.862247    Uiso  ? H
   H769       1.0     0.684094     0.362777     0.830998    Uiso  ? H
   N82        1.0     0.712977     0.330905     0.830554    Uiso  ? N
   C1059      1.0     0.736720     0.318007     0.837419    Uiso  ? C
   N83        1.0     0.737268     0.293315     0.825481    Uiso  ? N
   C1060      1.0     0.713844     0.289885     0.812620    Uiso  ? C
   H770       1.0     0.708693     0.274549     0.798289    Uiso  ? H
   C1061      1.0     0.699260     0.313579     0.813524    Uiso  ? C
   H771       1.0     0.678989     0.315890     0.805331    Uiso  ? H
   N84        1.0     0.835630     0.434782     0.760301    Uiso  ? N
   C1062      1.0     0.843472     0.416938     0.778898    Uiso  ? C
   H772       1.0     0.862412     0.407452     0.775968    Uiso  ? H
   H773       1.0     0.800367     0.458878     0.757556    Uiso  ? H
   H774       1.0     0.753049     0.326308     0.848430    Uiso  ? H
   C1063      1.0     0.858284     0.842664     0.595619    Uiso  ? C
   H775       1.0     0.863474     0.828311     0.580214    Uiso  ? H
   C1064      1.0     0.833263     0.865599     0.622154    Uiso  ? C
   N85        1.0     0.834191     0.855075     0.597575    Uiso  ? N
   C1065      1.0     0.811588     0.858376     0.577351    Uiso  ? C
   H776       1.0     0.802593     0.879582     0.578062    Uiso  ? H
   H777       1.0     0.819975     0.857637     0.556255    Uiso  ? H
   C1066      1.0     0.790850     0.837736     0.581855    Uiso  ? C
   C1067      1.0     0.787800     0.815458     0.564498    Uiso  ? C
   C1068      1.0     0.772525     0.841038     0.602789    Uiso  ? C
   C1069      1.0     0.766696     0.797576     0.567304    Uiso  ? C
   H778       1.0     0.804158     0.810912     0.550352    Uiso  ? H
   C1070      1.0     0.750943     0.822887     0.607644    Uiso  ? C
   H779       1.0     0.774611     0.859075     0.615624    Uiso  ? H
   C1071      1.0     0.749398     0.800106     0.590230    Uiso  ? C
   H780       1.0     0.764923     0.778721     0.555867    Uiso  ? H
   H781       1.0     0.739069     0.824881     0.625153    Uiso  ? H
   C1072      1.0     0.730846     0.776763     0.596667    Uiso  ? C
   H782       1.0     0.715000     0.782761     0.611944    Uiso  ? H
   H783       1.0     0.720998     0.770836     0.577903    Uiso  ? H
   N86        1.0     0.746322     0.753583     0.607843    Uiso  ? N
   C1073      1.0     0.754639     0.731006     0.594513    Uiso  ? C
   N87        1.0     0.765520     0.713114     0.612350    Uiso  ? N
   C1074      1.0     0.762091     0.723102     0.637220    Uiso  ? C
   H784       1.0     0.766545     0.714194     0.656731    Uiso  ? H
   C1075      1.0     0.750907     0.748637     0.634540    Uiso  ? C
   H785       1.0     0.743508     0.763362     0.650690    Uiso  ? H
   N88        1.0     0.855757     0.859972     0.637128    Uiso  ? N
   C1076      1.0     0.870006     0.843911     0.620446    Uiso  ? C
   H786       1.0     0.889373     0.832955     0.625008    Uiso  ? H
   H787       1.0     0.817265     0.876864     0.630523    Uiso  ? H
   H788       1.0     0.754340     0.727260     0.573335    Uiso  ? H
   C1077      1.0     0.186244     0.577649     0.236984    Uiso  ? C
   H789       1.0     0.180114     0.570461     0.216722    Uiso  ? H
   C1078      1.0     0.208999     0.576991     0.273868    Uiso  ? C
   N89        1.0     0.211056     0.573498     0.246603    Uiso  ? N
   C1079      1.0     0.235273     0.564966     0.232061    Uiso  ? C
   H790       1.0     0.248333     0.553364     0.244495    Uiso  ? H
   H791       1.0     0.228055     0.551874     0.215668    Uiso  ? H
   C1080      1.0     0.250807     0.589060     0.221098    Uiso  ? C
   C1081      1.0     0.270529     0.603574     0.236688    Uiso  ? C
   C1082      1.0     0.244386     0.598317     0.194558    Uiso  ? C
   C1083      1.0     0.285867     0.625357     0.224802    Uiso  ? C
   H792       1.0     0.272752     0.599371     0.258591    Uiso  ? H
   C1084      1.0     0.259556     0.619009     0.183212    Uiso  ? C
   H793       1.0     0.230177     0.588380     0.181990    Uiso  ? H
   C1085      1.0     0.281316     0.631146     0.197376    Uiso  ? C
   H794       1.0     0.302218     0.633184     0.236881    Uiso  ? H
   H795       1.0     0.255487     0.624443     0.163324    Uiso  ? H
   C1086      1.0     0.299981     0.650023     0.181296    Uiso  ? C
   H796       1.0     0.321900     0.649456     0.188493    Uiso  ? H
   H797       1.0     0.298620     0.642423     0.159791    Uiso  ? H
   N90        1.0     0.292484     0.679122     0.183486    Uiso  ? N
   C1087      1.0     0.282222     0.694440     0.163312    Uiso  ? C
   N91        1.0     0.271842     0.717569     0.172279    Uiso  ? N
   C1088      1.0     0.277637     0.717465     0.199096    Uiso  ? C
   H798       1.0     0.274167     0.733017     0.213388    Uiso  ? H
   C1089      1.0     0.290848     0.693765     0.205727    Uiso  ? C
   H799       1.0     0.298318     0.688405     0.226387    Uiso  ? H
   N92        1.0     0.182800     0.580548     0.281166    Uiso  ? N
   C1090      1.0     0.168578     0.583407     0.257779    Uiso  ? C
   H800       1.0     0.146354     0.584024     0.254282    Uiso  ? H
   H801       1.0     0.226254     0.574993     0.287324    Uiso  ? H
   H802       1.0     0.279964     0.686600     0.142290    Uiso  ? H
   C1091      1.0     0.299475     0.298649     0.415114    Uiso  ? C
   H803       1.0     0.319898     0.293165     0.409055    Uiso  ? H
   C1092      1.0     0.256490     0.302673     0.417815    Uiso  ? C
   N93        1.0     0.276194     0.287567     0.406383    Uiso  ? N
   C1093      1.0     0.274482     0.266352     0.385266    Uiso  ? C
   H804       1.0     0.274051     0.277225     0.363704    Uiso  ? H
   H805       1.0     0.292813     0.252553     0.386633    Uiso  ? H
   C1094      1.0     0.248293     0.251430     0.387705    Uiso  ? C
   C1095      1.0     0.246457     0.233020     0.408921    Uiso  ? C
   C1096      1.0     0.226159     0.258478     0.371832    Uiso  ? C
   C1097      1.0     0.220959     0.221513     0.413193    Uiso  ? C
   H806       1.0     0.263050     0.229503     0.423199    Uiso  ? H
   C1098      1.0     0.201172     0.244088     0.374563    Uiso  ? C
   H807       1.0     0.227917     0.269475     0.353073    Uiso  ? H
   C1099      1.0     0.198495     0.225320     0.395693    Uiso  ? C
   H808       1.0     0.221836     0.205596     0.429380    Uiso  ? H
   H809       1.0     0.187354     0.248874     0.357162    Uiso  ? H
   C1100      1.0     0.173158     0.208118     0.400653    Uiso  ? C
   H810       1.0     0.172712     0.198780     0.421660    Uiso  ? H
   H811       1.0     0.154976     0.222666     0.399461    Uiso  ? H
   N94        1.0     0.170628     0.186621     0.380186    Uiso  ? N
   C1101      1.0     0.157844     0.188814     0.356281    Uiso  ? C
   N95        1.0     0.163585     0.167242     0.340697    Uiso  ? N
   C1102      1.0     0.179359     0.150281     0.355613    Uiso  ? C
   H812       1.0     0.188890     0.131933     0.348441    Uiso  ? H
   C1103      1.0     0.183484     0.163432     0.379867    Uiso  ? C
   H813       1.0     0.196903     0.155797     0.394844    Uiso  ? H
   N96        1.0     0.266092     0.321128     0.434759    Uiso  ? N
   C1104      1.0     0.293122     0.320359     0.432404    Uiso  ? C
   H814       1.0     0.306527     0.333181     0.442988    Uiso  ? H
   H815       1.0     0.235038     0.300639     0.413378    Uiso  ? H
   H816       1.0     0.145221     0.205081     0.349227    Uiso  ? H
