_chemical_name_common                  ' Atoms. Timestep: 0'
_cell_length_a                         62.295349
_cell_length_b                         62.295349
_cell_length_c                         62.295349
_cell_angle_alpha                      90.000000
_cell_angle_beta                       90.000000
_cell_angle_gamma                      90.000000
_cell_volume                           1.000000
_space_group_name_H-M_alt              'P 1'
_space_group_IT_number                 1

loop_
_space_group_symop_operation_xyz
   'x, y, z'

loop_
   _atom_site_label
   _atom_site_occupancy
   _atom_site_fract_x
   _atom_site_fract_y
   _atom_site_fract_z
   _atom_site_adp_type
   _atom_site_U_iso_or_equiv
   _atom_site_type_symbol
   C1         1.0     0.887301     0.226092     0.199170    Uiso  ? C
   C2         1.0     0.872454     0.242156     0.190489    Uiso  ? C
   C3         1.0     0.863789     0.257767     0.203828    Uiso  ? C
   H1         1.0     0.868735     0.258478     0.220360    Uiso  ? H
   C4         1.0     0.848475     0.272291     0.196612    Uiso  ? C
   H2         1.0     0.841434     0.284356     0.207055    Uiso  ? H
   C5         1.0     0.839041     0.269708     0.176373    Uiso  ? C
   H3         1.0     0.826719     0.279712     0.171623    Uiso  ? H
   C6         1.0     0.846592     0.252583     0.163612    Uiso  ? C
   C7         1.0     0.863338     0.239299     0.170356    Uiso  ? C
   H4         1.0     0.868289     0.224695     0.161169    Uiso  ? H
   C8         1.0     0.835932     0.247537     0.142810    Uiso  ? C
   C9         1.0     0.878554     0.187089     0.232302    Uiso  ? C
   C10        1.0     0.856771     0.181996     0.239874    Uiso  ? C
   C11        1.0     0.848388     0.192593     0.257849    Uiso  ? C
   H5         1.0     0.858741     0.203810     0.266643    Uiso  ? H
   C12        1.0     0.828053     0.188630     0.264571    Uiso  ? C
   H6         1.0     0.822549     0.194746     0.279947    Uiso  ? H
   C13        1.0     0.814375     0.174827     0.253438    Uiso  ? C
   H7         1.0     0.798214     0.170532     0.259058    Uiso  ? H
   C14        1.0     0.821815     0.166162     0.233679    Uiso  ? C
   C15        1.0     0.843365     0.168865     0.227704    Uiso  ? C
   H8         1.0     0.848820     0.159166     0.214599    Uiso  ? H
   C16        1.0     0.808671     0.148032     0.222633    Uiso  ? C
   C17        1.0     0.150941     0.175992     0.224712    Uiso  ? C
   C18        1.0     0.168871     0.161683     0.231793    Uiso  ? C
   C19        1.0     0.178522     0.164063     0.250976    Uiso  ? C
   H9         1.0     0.170945     0.175290     0.260954    Uiso  ? H
   C20        1.0     0.196995     0.151441     0.257209    Uiso  ? C
   H10        1.0     0.203319     0.152649     0.273892    Uiso  ? H
   C21        1.0     0.205828     0.135848     0.242346    Uiso  ? C
   H11        1.0     0.218563     0.124652     0.247727    Uiso  ? H
   C22        1.0     0.196045     0.133978     0.222297    Uiso  ? C
   C23        1.0     0.177743     0.145831     0.217628    Uiso  ? C
   H12        1.0     0.168778     0.142846     0.201779    Uiso  ? H
   C24        1.0     0.204293     0.118464     0.206653    Uiso  ? C
   C25        1.0     0.138906     0.225135     0.184893    Uiso  ? C
   C26        1.0     0.151964     0.237200     0.169629    Uiso  ? C
   C27        1.0     0.158896     0.257479     0.175709    Uiso  ? C
   H13        1.0     0.153626     0.265515     0.189852    Uiso  ? H
   C28        1.0     0.173231     0.268732     0.162594    Uiso  ? C
   H14        1.0     0.177655     0.284300     0.168746    Uiso  ? H
   C29        1.0     0.182119     0.259186     0.145048    Uiso  ? C
   H15        1.0     0.195052     0.268329     0.136212    Uiso  ? H
   C30        1.0     0.176913     0.237894     0.140154    Uiso  ? C
   C31        1.0     0.159653     0.228495     0.150520    Uiso  ? C
   H16        1.0     0.153790     0.213971     0.144312    Uiso  ? H
   C32        1.0     0.186306     0.227466     0.120590    Uiso  ? C
   C33        1.0     0.784597     0.215468     0.887166    Uiso  ? C
   C34        1.0     0.767257     0.204593     0.874878    Uiso  ? C
   C35        1.0     0.746980     0.215287     0.872602    Uiso  ? C
   H17        1.0     0.743660     0.231006     0.878901    Uiso  ? H
   C36        1.0     0.730110     0.204005     0.860771    Uiso  ? C
   H18        1.0     0.713134     0.210857     0.861273    Uiso  ? H
   C37        1.0     0.734348     0.185169     0.849483    Uiso  ? C
   H19        1.0     0.722424     0.177690     0.841055    Uiso  ? H
   C38        1.0     0.754015     0.175040     0.851475    Uiso  ? C
   C39        1.0     0.770456     0.184179     0.864355    Uiso  ? C
   H20        1.0     0.785986     0.176348     0.864733    Uiso  ? H
   C40        1.0     0.758282     0.154402     0.840564    Uiso  ? C
   C41        1.0     0.793588     0.215836     0.136679    Uiso  ? C
   C42        1.0     0.780940     0.207681     0.154876    Uiso  ? C
   C43        1.0     0.770185     0.221204     0.168458    Uiso  ? C
   H21        1.0     0.767928     0.237851     0.164539    Uiso  ? H
   C44        1.0     0.756987     0.213458     0.184964    Uiso  ? C
   H22        1.0     0.746543     0.224806     0.192916    Uiso  ? H
   C45        1.0     0.759240     0.191963     0.192338    Uiso  ? C
   H23        1.0     0.750335     0.186224     0.205919    Uiso  ? H
   C46        1.0     0.772465     0.178212     0.179802    Uiso  ? C
   C47        1.0     0.783531     0.186871     0.161210    Uiso  ? C
   H24        1.0     0.793103     0.175880     0.151513    Uiso  ? H
   C48        1.0     0.776523     0.156637     0.187794    Uiso  ? C
   C49        1.0     0.840396     0.242232     0.873785    Uiso  ? C
   C50        1.0     0.851334     0.250630     0.854016    Uiso  ? C
   C51        1.0     0.851719     0.272403     0.848288    Uiso  ? C
   H25        1.0     0.843489     0.284303     0.858363    Uiso  ? H
   C52        1.0     0.859746     0.278820     0.828027    Uiso  ? C
   H26        1.0     0.858818     0.295620     0.823644    Uiso  ? H
   C53        1.0     0.867634     0.263786     0.814027    Uiso  ? C
   H27        1.0     0.875907     0.270777     0.799583    Uiso  ? H
   C54        1.0     0.867130     0.241893     0.818658    Uiso  ? C
   C55        1.0     0.859667     0.235328     0.838873    Uiso  ? C
   H28        1.0     0.857378     0.218282     0.841922    Uiso  ? H
   C56        1.0     0.874575     0.225294     0.803219    Uiso  ? C
   C57        1.0     0.764183     0.881208     0.187082    Uiso  ? C
   C58        1.0     0.753237     0.862186     0.177352    Uiso  ? C
   C59        1.0     0.733181     0.854526     0.185149    Uiso  ? C
   H29        1.0     0.723326     0.862658     0.196998    Uiso  ? H
   C60        1.0     0.723480     0.836088     0.176090    Uiso  ? C
   H30        1.0     0.708144     0.830980     0.180113    Uiso  ? H
   C61        1.0     0.735365     0.823820     0.161567    Uiso  ? C
   H31        1.0     0.728858     0.809220     0.154226    Uiso  ? H
   C62        1.0     0.755916     0.829764     0.154543    Uiso  ? C
   C63        1.0     0.763682     0.849838     0.161487    Uiso  ? C
   H32        1.0     0.778292     0.855967     0.154614    Uiso  ? H
   C64        1.0     0.766395     0.817931     0.136547    Uiso  ? C
   C65        1.0     0.809307     0.894755     0.233743    Uiso  ? C
   C66        1.0     0.824292     0.884093     0.247935    Uiso  ? C
   C67        1.0     0.824411     0.886250     0.270590    Uiso  ? C
   H33        1.0     0.811482     0.896513     0.278621    Uiso  ? H
   C68        1.0     0.840287     0.875988     0.283402    Uiso  ? C
   H34        1.0     0.838580     0.878980     0.300406    Uiso  ? H
   C69        1.0     0.854980     0.862266     0.273247    Uiso  ? C
   H35        1.0     0.864889     0.851437     0.283643    Uiso  ? H
   C70        1.0     0.856357     0.861699     0.250916    Uiso  ? C
   C71        1.0     0.841524     0.873615     0.238356    Uiso  ? C
   H36        1.0     0.842094     0.872354     0.220429    Uiso  ? H
   C72        1.0     0.870522     0.846669     0.240380    Uiso  ? C
   C73        1.0     0.848114     0.183035     0.763548    Uiso  ? C
   C74        1.0     0.826017     0.176055     0.757076    Uiso  ? C
   C75        1.0     0.817405     0.177928     0.735989    Uiso  ? C
   H37        1.0     0.827417     0.183948     0.724345    Uiso  ? H
   C76        1.0     0.797457     0.168453     0.731114    Uiso  ? C
   H38        1.0     0.792334     0.168184     0.714410    Uiso  ? H
   C77        1.0     0.785403     0.158646     0.748123    Uiso  ? C
   H39        1.0     0.769281     0.151833     0.744189    Uiso  ? H
   C78        1.0     0.793959     0.156701     0.768436    Uiso  ? C
   C79        1.0     0.813686     0.165815     0.773581    Uiso  ? C
   H40        1.0     0.820040     0.165441     0.790139    Uiso  ? H
   C80        1.0     0.782663     0.143738     0.785476    Uiso  ? C
   C81        1.0     0.126506     0.213823     0.790836    Uiso  ? C
   C82        1.0     0.148458     0.221832     0.797601    Uiso  ? C
   C83        1.0     0.162003     0.231807     0.783128    Uiso  ? C
   H41        1.0     0.156818     0.235436     0.767274    Uiso  ? H
   C84        1.0     0.181747     0.240036     0.789465    Uiso  ? C
   H42        1.0     0.191642     0.249816     0.778724    Uiso  ? H
   C85        1.0     0.188208     0.236878     0.810314    Uiso  ? C
   H43        1.0     0.204962     0.241617     0.813340    Uiso  ? H
   C86        1.0     0.175209     0.227828     0.826412    Uiso  ? C
   C87        1.0     0.155319     0.219055     0.818705    Uiso  ? C
   H44        1.0     0.144810     0.212681     0.831704    Uiso  ? H
   C88        1.0     0.181776     0.224807     0.848930    Uiso  ? C
   C89        1.0     0.229683     0.186377     0.102461    Uiso  ? C
   C90        1.0     0.244416     0.170022     0.112845    Uiso  ? C
   C91        1.0     0.265969     0.173736     0.115820    Uiso  ? C
   H45        1.0     0.272448     0.189344     0.111467    Uiso  ? H
   C92        1.0     0.278941     0.160632     0.127754    Uiso  ? C
   H46        1.0     0.295034     0.165014     0.130740    Uiso  ? H
   C93        1.0     0.269902     0.143677     0.139165    Uiso  ? C
   H47        1.0     0.280673     0.132220     0.147769    Uiso  ? H
   C94        1.0     0.248000     0.138936     0.136260    Uiso  ? C
   C95        1.0     0.235748     0.152292     0.122436    Uiso  ? C
   H48        1.0     0.219492     0.148412     0.119353    Uiso  ? H
   C96        1.0     0.237976     0.122837     0.151405    Uiso  ? C
   O1         1.0     0.896501     0.213049     0.185892    Uiso  ? O
   O2         1.0     0.889528     0.223642     0.218967    Uiso  ? O
   O3         1.0     0.888886     0.175048     0.218037    Uiso  ? O
   O4         1.0     0.886642     0.206395     0.235436    Uiso  ? O
   O5         1.0     0.146561     0.178878     0.204740    Uiso  ? O
   O6         1.0     0.139586     0.185646     0.238350    Uiso  ? O
   O7         1.0     0.125169     0.211829     0.177942    Uiso  ? O
   O8         1.0     0.142091     0.227206     0.205194    Uiso  ? O
   O9         1.0     0.799812     0.202668     0.894011    Uiso  ? O
   O10        1.0     0.783558     0.235198     0.890712    Uiso  ? O
   O11        1.0     0.803274     0.202791     0.123765    Uiso  ? O
   O12        1.0     0.796654     0.236246     0.134651    Uiso  ? O
   O13        1.0     0.843967     0.233387     0.129518    Uiso  ? O
   O14        1.0     0.816978     0.254670     0.139364    Uiso  ? O
   O15        1.0     0.834837     0.222771     0.875626    Uiso  ? O
   O16        1.0     0.834296     0.255477     0.887877    Uiso  ? O
   O17        1.0     0.783515     0.885438     0.182020    Uiso  ? O
   O18        1.0     0.755460     0.893593     0.200903    Uiso  ? O
   O19        1.0     0.817132     0.105603     0.214858    Uiso  ? O
   O20        1.0     0.791023     0.102877     0.239999    Uiso  ? O
   O21        1.0     0.818044     0.135233     0.209360    Uiso  ? O
   O22        1.0     0.789302     0.146424     0.226730    Uiso  ? O
   O23        1.0     0.789968     0.144386     0.177979    Uiso  ? O
   O24        1.0     0.770962     0.151437     0.207403    Uiso  ? O
   O25        1.0     0.854503     0.181537     0.782980    Uiso  ? O
   O26        1.0     0.861744     0.189839     0.749486    Uiso  ? O
   O27        1.0     0.884694     0.208487     0.810021    Uiso  ? O
   O28        1.0     0.873475     0.228687     0.782394    Uiso  ? O
   O29        1.0     0.113741     0.203784     0.803773    Uiso  ? O
   O30        1.0     0.121656     0.214297     0.770534    Uiso  ? O
   O31        1.0     0.112554     0.165303     0.774196    Uiso  ? O
   O32        1.0     0.119026     0.193869     0.754073    Uiso  ? O
   O33        1.0     0.171810     0.211384     0.860833    Uiso  ? O
   O34        1.0     0.201765     0.229319     0.852602    Uiso  ? O
   O35        1.0     0.180783     0.208721     0.116202    Uiso  ? O
   O36        1.0     0.198202     0.238387     0.107965    Uiso  ? O
   O37        1.0     0.212477     0.178797     0.894484    Uiso  ? O
   O38        1.0     0.235293     0.204704     0.899414    Uiso  ? O
   O39        1.0     0.208354     0.180145     0.866763    Uiso  ? O
   O40        1.0     0.220897     0.211051     0.854369    Uiso  ? O
   O41        1.0     0.792646     0.103545     0.798888    Uiso  ? O
   O42        1.0     0.757863     0.894806     0.789725    Uiso  ? O
   O43        1.0     0.760478     0.893063     0.839536    Uiso  ? O
   O44        1.0     0.739088     0.888867     0.812778    Uiso  ? O
   O45        1.0     0.777171     0.149913     0.834831    Uiso  ? O
   O46        1.0     0.742048     0.144444     0.832677    Uiso  ? O
   O47        1.0     0.794357     0.133165     0.799280    Uiso  ? O
   O48        1.0     0.762425     0.142266     0.785630    Uiso  ? O
   O49        1.0     0.107614     0.162048     0.173173    Uiso  ? O
   O50        1.0     0.850283     0.189502     0.109083    Uiso  ? O
   O51        1.0     0.828701     0.108282     0.163313    Uiso  ? O
   O52        1.0     0.877874     0.155373     0.815344    Uiso  ? O
   O53        1.0     0.160298     0.172571     0.894104    Uiso  ? O
   O54        1.0     0.807743     0.112562     0.847637    Uiso  ? O
   Zn1        1.0     0.114517     0.184943     0.195447    Uiso  ? Zn
   Zn2        1.0     0.123540     0.212777     0.231274    Uiso  ? Zn
   Zn3        1.0     0.829522     0.213139     0.106110    Uiso  ? Zn
   Zn4        1.0     0.807117     0.254766     0.106921    Uiso  ? Zn
   Zn5        1.0     0.804916     0.115443     0.186512    Uiso  ? Zn
   Zn6        1.0     0.767886     0.120730     0.221920    Uiso  ? Zn
   Zn7        1.0     0.885449     0.180309     0.794244    Uiso  ? Zn
   Zn8        1.0     0.885515     0.210719     0.755904    Uiso  ? Zn
   Zn9        1.0     0.184160     0.194646     0.886411    Uiso  ? Zn
   Zn10       1.0     0.219636     0.227938     0.882692    Uiso  ? Zn
   Zn11       1.0     0.784437     0.119081     0.828290    Uiso  ? Zn
   Zn12       1.0     0.742779     0.125357     0.805855    Uiso  ? Zn
   C97        1.0     0.889692     0.786297     0.792843    Uiso  ? C
   C98        1.0     0.104776     0.770839     0.807033    Uiso  ? C
   C99        1.0     0.103931     0.749059     0.802065    Uiso  ? C
   H49        1.0     0.893157     0.742442     0.786834    Uiso  ? H
   C100       1.0     0.115867     0.734070     0.813239    Uiso  ? C
   H50        1.0     0.114355     0.717307     0.809041    Uiso  ? H
   C101       1.0     0.127956     0.740991     0.830306    Uiso  ? C
   H51        1.0     0.136581     0.729094     0.839162    Uiso  ? H
   C102       1.0     0.127928     0.762405     0.837106    Uiso  ? C
   C103       1.0     0.116124     0.777406     0.825651    Uiso  ? C
   H52        1.0     0.114929     0.793927     0.829940    Uiso  ? H
   C104       1.0     0.141464     0.768933     0.855931    Uiso  ? C
   C105       1.0     0.103464     0.825817     0.760046    Uiso  ? C
   C106       1.0     0.125022     0.830158     0.752750    Uiso  ? C
   C107       1.0     0.132867     0.818935     0.734948    Uiso  ? C
   H53        1.0     0.121852     0.808127     0.725770    Uiso  ? H
   C108       1.0     0.153815     0.821887     0.729382    Uiso  ? C
   H54        1.0     0.159818     0.811721     0.716834    Uiso  ? H
   C109       1.0     0.167601     0.835946     0.739368    Uiso  ? C
   H55        1.0     0.184258     0.837115     0.733720    Uiso  ? H
   C110       1.0     0.159622     0.848236     0.756476    Uiso  ? C
   C111       1.0     0.137534     0.846530     0.762535    Uiso  ? C
   H56        1.0     0.132266     0.855521     0.777098    Uiso  ? H
   C112       1.0     0.174638     0.862025     0.769579    Uiso  ? C
   C113       1.0     0.830507     0.835169     0.762001    Uiso  ? C
   C114       1.0     0.809405     0.847005     0.759588    Uiso  ? C
   C115       1.0     0.794893     0.838852     0.744552    Uiso  ? C
   H57        1.0     0.799112     0.827732     0.730774    Uiso  ? H
   C116       1.0     0.774908     0.848146     0.743232    Uiso  ? C
   H58        1.0     0.762406     0.841997     0.733264    Uiso  ? H
   C117       1.0     0.768642     0.863961     0.756951    Uiso  ? C
   H59        1.0     0.752492     0.869864     0.755899    Uiso  ? H
   C118       1.0     0.783287     0.874336     0.770470    Uiso  ? C
   C119       1.0     0.802834     0.863240     0.773703    Uiso  ? C
   H60        1.0     0.814697     0.869999     0.785361    Uiso  ? H
   C120       1.0     0.777412     0.889708     0.787232    Uiso  ? C
   C121       1.0     0.842349     0.788246     0.804022    Uiso  ? C
   C122       1.0     0.830482     0.773906     0.820060    Uiso  ? C
   C123       1.0     0.829811     0.752277     0.817026    Uiso  ? C
   H61        1.0     0.836262     0.746169     0.803076    Uiso  ? H
   C124       1.0     0.817840     0.739262     0.830595    Uiso  ? C
   H62        1.0     0.817270     0.722466     0.828256    Uiso  ? H
   C125       1.0     0.809907     0.747624     0.849666    Uiso  ? C
   H63        1.0     0.803247     0.738023     0.861849    Uiso  ? H
   C126       1.0     0.811755     0.769071     0.854030    Uiso  ? C
   C127       1.0     0.822195     0.782170     0.838756    Uiso  ? C
   H64        1.0     0.824314     0.800123     0.840878    Uiso  ? H
   C128       1.0     0.802468     0.778294     0.874210    Uiso  ? C
   C129       1.0     0.194648     0.795642     0.115396    Uiso  ? C
   C130       1.0     0.209563     0.803241     0.131138    Uiso  ? C
   C131       1.0     0.223179     0.788994     0.141584    Uiso  ? C
   H65        1.0     0.223854     0.771961     0.139067    Uiso  ? H
   C132       1.0     0.238638     0.796536     0.155153    Uiso  ? C
   H66        1.0     0.249121     0.784387     0.160792    Uiso  ? H
   C133       1.0     0.240528     0.818663     0.160073    Uiso  ? C
   H67        1.0     0.253750     0.822727     0.170784    Uiso  ? H
   C134       1.0     0.226107     0.832842     0.149774    Uiso  ? C
   C135       1.0     0.211121     0.825186     0.134894    Uiso  ? C
   H68        1.0     0.199062     0.834103     0.127803    Uiso  ? H
   C136       1.0     0.223831     0.854593     0.158192    Uiso  ? C
   C137       1.0     0.198906     0.797605     0.866755    Uiso  ? C
   C138       1.0     0.214542     0.808126     0.853115    Uiso  ? C
   C139       1.0     0.235092     0.798894     0.850012    Uiso  ? C
   H69        1.0     0.238828     0.785178     0.859223    Uiso  ? H
   C140       1.0     0.248981     0.808057     0.835254    Uiso  ? C
   H70        1.0     0.265061     0.801152     0.832958    Uiso  ? H
   C141       1.0     0.243148     0.826772     0.824248    Uiso  ? C
   H71        1.0     0.254856     0.834290     0.813722    Uiso  ? H
   C142       1.0     0.223258     0.835710     0.826723    Uiso  ? C
   C143       1.0     0.208171     0.825390     0.840116    Uiso  ? C
   H72        1.0     0.193330     0.833615     0.842888    Uiso  ? H
   C144       1.0     0.216433     0.856590     0.817167    Uiso  ? C
   C145       1.0     0.154206     0.768352     0.127292    Uiso  ? C
   C146       1.0     0.149321     0.764859     0.150926    Uiso  ? C
   C147       1.0     0.158022     0.747784     0.162575    Uiso  ? C
   H73        1.0     0.170729     0.738498     0.154573    Uiso  ? H
   C148       1.0     0.151949     0.743182     0.183335    Uiso  ? C
   H74        1.0     0.158046     0.729502     0.192579    Uiso  ? H
   C149       1.0     0.139462     0.757941     0.194708    Uiso  ? C
   H75        1.0     0.135988     0.754279     0.211859    Uiso  ? H
   C150       1.0     0.129875     0.775738     0.183154    Uiso  ? C
   C151       1.0     0.134898     0.778579     0.161888    Uiso  ? C
   H76        1.0     0.128847     0.792542     0.153835    Uiso  ? H
   C152       1.0     0.117865     0.790882     0.196231    Uiso  ? C
   C153       1.0     0.222220     0.125745     0.803983    Uiso  ? C
   C154       1.0     0.230592     0.147997     0.810078    Uiso  ? C
   C155       1.0     0.246164     0.157662     0.797572    Uiso  ? C
   H77        1.0     0.253351     0.147934     0.785115    Uiso  ? H
   C156       1.0     0.253857     0.178185     0.802569    Uiso  ? C
   H78        1.0     0.264616     0.186870     0.791292    Uiso  ? H
   C157       1.0     0.244908     0.189096     0.820286    Uiso  ? C
   H79        1.0     0.248810     0.205747     0.822542    Uiso  ? H
   C158       1.0     0.229274     0.179224     0.833603    Uiso  ? C
   C159       1.0     0.222964     0.157949     0.828621    Uiso  ? C
   H80        1.0     0.209650     0.149399     0.836555    Uiso  ? H
   C160       1.0     0.219422     0.190038     0.852748    Uiso  ? C
   C161       1.0     0.182626     0.119661     0.770862    Uiso  ? C
   C162       1.0     0.173205     0.136734     0.757429    Uiso  ? C
   C163       1.0     0.182284     0.142825     0.737885    Uiso  ? C
   H81        1.0     0.196572     0.135561     0.730705    Uiso  ? H
   C164       1.0     0.173571     0.160989     0.727416    Uiso  ? C
   H82        1.0     0.181772     0.166114     0.713124    Uiso  ? H
   C165       1.0     0.155618     0.171616     0.735240    Uiso  ? C
   H83        1.0     0.149224     0.185727     0.726722    Uiso  ? H
   C166       1.0     0.144251     0.164429     0.752925    Uiso  ? C
   C167       1.0     0.154178     0.147350     0.764760    Uiso  ? C
   H84        1.0     0.148695     0.142596     0.780189    Uiso  ? H
   C168       1.0     0.124028     0.174899     0.760070    Uiso  ? C
   C169       1.0     0.136450     0.823653     0.226682    Uiso  ? C
   C170       1.0     0.160102     0.826271     0.227589    Uiso  ? C
   C171       1.0     0.173091     0.813832     0.241380    Uiso  ? C
   H85        1.0     0.165514     0.800591     0.249828    Uiso  ? H
   C172       1.0     0.194915     0.817046     0.242322    Uiso  ? C
   H86        1.0     0.205863     0.805360     0.249545    Uiso  ? H
   C173       1.0     0.204489     0.833694     0.229956    Uiso  ? C
   H87        1.0     0.222022     0.835629     0.231083    Uiso  ? H
   C174       1.0     0.191704     0.847151     0.217143    Uiso  ? C
   C175       1.0     0.170070     0.842669     0.214800    Uiso  ? C
   H88        1.0     0.159868     0.851948     0.203284    Uiso  ? H
   C176       1.0     0.201640     0.864271     0.203776    Uiso  ? C
   C177       1.0     0.863918     0.795118     0.199460    Uiso  ? C
   C178       1.0     0.847083     0.781901     0.187897    Uiso  ? C
   C179       1.0     0.840641     0.761575     0.195790    Uiso  ? C
   H89        1.0     0.847738     0.756130     0.210320    Uiso  ? H
   C180       1.0     0.825059     0.749556     0.185228    Uiso  ? C
   H90        1.0     0.819682     0.734361     0.191396    Uiso  ? H
   C181       1.0     0.814827     0.758225     0.166621    Uiso  ? C
   H91        1.0     0.802375     0.749070     0.159974    Uiso  ? H
   C182       1.0     0.821406     0.778181     0.158596    Uiso  ? C
   C183       1.0     0.837428     0.789405     0.169315    Uiso  ? C
   H92        1.0     0.841754     0.804604     0.160647    Uiso  ? H
   C184       1.0     0.809756     0.787816     0.139718    Uiso  ? C
   C185       1.0     0.765307     0.819273     0.878191    Uiso  ? C
   C186       1.0     0.751721     0.829448     0.861703    Uiso  ? C
   C187       1.0     0.733373     0.818627     0.853748    Uiso  ? C
   H93        1.0     0.730034     0.802689     0.858796    Uiso  ? H
   C188       1.0     0.719774     0.828317     0.838698    Uiso  ? C
   H94        1.0     0.705517     0.820006     0.833586    Uiso  ? H
   C189       1.0     0.724485     0.849512     0.831326    Uiso  ? C
   H95        1.0     0.713556     0.856800     0.819899    Uiso  ? H
   C190       1.0     0.742255     0.860070     0.839491    Uiso  ? C
   C191       1.0     0.755879     0.850553     0.855032    Uiso  ? C
   H96        1.0     0.770363     0.859553     0.859729    Uiso  ? H
   C192       1.0     0.746874     0.881825     0.830205    Uiso  ? C
   O55        1.0     0.891366     0.805976     0.797095    Uiso  ? O
   O56        1.0     0.874076     0.779167     0.780577    Uiso  ? O
   O57        1.0     0.897111     0.828016     0.780349    Uiso  ? O
   O58        1.0     0.885587     0.815049     0.750016    Uiso  ? O
   O59        1.0     0.846677     0.846039     0.768566    Uiso  ? O
   O60        1.0     0.831991     0.814892     0.761489    Uiso  ? O
   O61        1.0     0.847729     0.807671     0.808968    Uiso  ? O
   O62        1.0     0.847181     0.781205     0.785625    Uiso  ? O
   O63        1.0     0.184904     0.809562     0.103573    Uiso  ? O
   O64        1.0     0.192602     0.775621     0.111787    Uiso  ? O
   O65        1.0     0.183914     0.808880     0.875481    Uiso  ? O
   O66        1.0     0.198885     0.776342     0.868829    Uiso  ? O
   O67        1.0     0.141214     0.788219     0.862886    Uiso  ? O
   O68        1.0     0.153714     0.755260     0.864712    Uiso  ? O
   O69        1.0     0.146483     0.783910     0.116910    Uiso  ? O
   O70        1.0     0.169428     0.758616     0.117954    Uiso  ? O
   O71        1.0     0.209695     0.115550     0.817079    Uiso  ? O
   O72        1.0     0.223678     0.118968     0.785484    Uiso  ? O
   O73        1.0     0.170608     0.109885     0.784234    Uiso  ? O
   O74        1.0     0.202303     0.114137     0.769074    Uiso  ? O
   O75        1.0     0.167258     0.875845     0.783269    Uiso  ? O
   O76        1.0     0.194164     0.862597     0.765377    Uiso  ? O
   O77        1.0     0.196811     0.858717     0.813265    Uiso  ? O
   O78        1.0     0.229524     0.867926     0.807414    Uiso  ? O
   O79        1.0     0.125514     0.838454     0.217470    Uiso  ? O
   O80        1.0     0.128288     0.806434     0.234617    Uiso  ? O
   O81        1.0     0.108767     0.806768     0.186630    Uiso  ? O
   O82        1.0     0.116800     0.788814     0.216980    Uiso  ? O
   O83        1.0     0.876286     0.808010     0.189454    Uiso  ? O
   O84        1.0     0.867102     0.792470     0.219569    Uiso  ? O
   O85        1.0     0.867809     0.843396     0.220173    Uiso  ? O
   O86        1.0     0.883996     0.835937     0.250900    Uiso  ? O
   O87        1.0     0.807591     0.808126     0.136431    Uiso  ? O
   O88        1.0     0.801874     0.774908     0.125641    Uiso  ? O
   O89        1.0     0.815198     0.787561     0.886837    Uiso  ? O
   O90        1.0     0.782058     0.779249     0.877542    Uiso  ? O
   O91        1.0     0.780232     0.829362     0.886490    Uiso  ? O
   O92        1.0     0.762921     0.799042     0.882877    Uiso  ? O
   O93        1.0     0.785167     0.823868     0.131266    Uiso  ? O
   O94        1.0     0.758496     0.801168     0.128578    Uiso  ? O
   O95        1.0     0.191100     0.106917     0.194491    Uiso  ? O
   O96        1.0     0.223865     0.117315     0.203713    Uiso  ? O
   O97        1.0     0.217868     0.124631     0.155165    Uiso  ? O
   O98        1.0     0.248757     0.106884     0.158352    Uiso  ? O
   O99        1.0     0.209164     0.866432     0.150434    Uiso  ? O
   O100       1.0     0.234073     0.860703     0.175021    Uiso  ? O
   O101       1.0     0.189707     0.876561     0.193328    Uiso  ? O
   O102       1.0     0.222400     0.864281     0.201329    Uiso  ? O
   O103       1.0     0.861500     0.854638     0.814925    Uiso  ? O
   O104       1.0     0.129936     0.820765     0.893797    Uiso  ? O
   O105       1.0     0.164696     0.891201     0.834812    Uiso  ? O
   O106       1.0     0.892945     0.860258     0.178224    Uiso  ? O
   O107       1.0     0.830161     0.833091     0.897576    Uiso  ? O
   O108       1.0     0.171733     0.103285     0.145836    Uiso  ? O
   Zn13       1.0     0.865590     0.829158     0.791544    Uiso  ? Zn
   Zn14       1.0     0.858333     0.797953     0.757545    Uiso  ? Zn
   Zn15       1.0     0.155190     0.799610     0.889964    Uiso  ? Zn
   Zn16       1.0     0.178985     0.755765     0.885867    Uiso  ? Zn
   Zn17       1.0     0.185183     0.889011     0.808976    Uiso  ? Zn
   Zn18       1.0     0.218688     0.882009     0.778062    Uiso  ? Zn
   Zn19       1.0     0.892729     0.835629     0.200683    Uiso  ? Zn
   Zn20       1.0     0.891705     0.805247     0.239889    Uiso  ? Zn
   Zn21       1.0     0.804703     0.815653     0.103853    Uiso  ? Zn
   Zn22       1.0     0.774343     0.779534     0.109287    Uiso  ? Zn
   Zn23       1.0     0.198186     0.892851     0.164320    Uiso  ? Zn
   Zn24       1.0     0.240186     0.891308     0.187507    Uiso  ? Zn
   H97        1.0     0.114739     0.816693     0.892998    Uiso  ? H
   H98        1.0     0.135582     0.834545     0.899181    Uiso  ? H
   H99        1.0     0.864398     0.195753     0.110055    Uiso  ? H
   H100       1.0     0.850459     0.174104     0.109207    Uiso  ? H
   H101       1.0     0.821186     0.109819     0.841119    Uiso  ? H
   H102       1.0     0.804059     0.117126     0.862745    Uiso  ? H
   H103       1.0     0.878299     0.141426     0.808679    Uiso  ? H
   H104       1.0     0.868921     0.156669     0.828086    Uiso  ? H
   H105       1.0     0.170857     0.114938     0.135319    Uiso  ? H
   H106       1.0     0.161297     0.887329     0.143848    Uiso  ? H
   H107       1.0     0.113071     0.164010     0.158241    Uiso  ? H
   H108       1.0     0.893716     0.151456     0.178797    Uiso  ? H
   H109       1.0     0.146806     0.180705     0.893263    Uiso  ? H
   H110       1.0     0.160806     0.160069     0.102189    Uiso  ? H
   H111       1.0     0.891257     0.856208     0.164231    Uiso  ? H
   H112       1.0     0.886748     0.873580     0.182939    Uiso  ? H
   H113       1.0     0.826846     0.116936     0.150542    Uiso  ? H
   H114       1.0     0.842361     0.106706     0.170065    Uiso  ? H
   H115       1.0     0.838084     0.831922     0.884753    Uiso  ? H
   H116       1.0     0.838890     0.835341     0.109970    Uiso  ? H
   H117       1.0     0.167950     0.107949     0.843972    Uiso  ? H
   H118       1.0     0.161254     0.877529     0.841217    Uiso  ? H
   H119       1.0     0.854724     0.867480     0.810417    Uiso  ? H
   H120       1.0     0.866932     0.851744     0.829242    Uiso  ? H
   C193       1.0     0.874544     0.381378     0.404684    Uiso  ? C
   C194       1.0     0.866748     0.364112     0.419380    Uiso  ? C
   C195       1.0     0.868189     0.341855     0.413188    Uiso  ? C
   H121       1.0     0.874618     0.336851     0.397675    Uiso  ? H
   C196       1.0     0.859789     0.326460     0.428104    Uiso  ? C
   H122       1.0     0.859949     0.309438     0.424114    Uiso  ? H
   C197       1.0     0.849295     0.332594     0.446687    Uiso  ? C
   H123       1.0     0.843322     0.319696     0.457196    Uiso  ? H
   C198       1.0     0.848777     0.354965     0.452780    Uiso  ? C
   C199       1.0     0.856956     0.370618     0.438818    Uiso  ? C
   H124       1.0     0.855342     0.386818     0.442943    Uiso  ? H
   C200       1.0     0.838765     0.361030     0.473382    Uiso  ? C
   C201       1.0     0.856988     0.431974     0.365483    Uiso  ? C
   C202       1.0     0.838031     0.444339     0.358907    Uiso  ? C
   C203       1.0     0.827770     0.443057     0.338844    Uiso  ? C
   H125       1.0     0.834694     0.433038     0.326317    Uiso  ? H
   C204       1.0     0.808804     0.453698     0.334730    Uiso  ? C
   H126       1.0     0.800646     0.450853     0.319482    Uiso  ? H
   C205       1.0     0.798980     0.465591     0.350790    Uiso  ? C
   H127       1.0     0.783473     0.472508     0.348513    Uiso  ? H
   C206       1.0     0.807146     0.465773     0.371556    Uiso  ? C
   C207       1.0     0.826555     0.454685     0.375327    Uiso  ? C
   H128       1.0     0.831758     0.452044     0.391736    Uiso  ? H
   C208       1.0     0.794948     0.477038     0.388967    Uiso  ? C
   C209       1.0     0.127399     0.428309     0.361148    Uiso  ? C
   C210       1.0     0.146252     0.438230     0.351282    Uiso  ? C
   C211       1.0     0.156960     0.426251     0.334924    Uiso  ? C
   H129       1.0     0.150993     0.410394     0.329147    Uiso  ? H
   C212       1.0     0.177010     0.433985     0.328771    Uiso  ? C
   H130       1.0     0.185276     0.423761     0.317815    Uiso  ? H
   C213       1.0     0.185552     0.452890     0.336992    Uiso  ? C
   H131       1.0     0.200622     0.458451     0.330633    Uiso  ? H
   C214       1.0     0.172749     0.466150     0.350243    Uiso  ? C
   C215       1.0     0.153859     0.458422     0.358001    Uiso  ? C
   H132       1.0     0.145177     0.466163     0.371994    Uiso  ? H
   C216       1.0     0.181853     0.485482     0.362236    Uiso  ? C
   C217       1.0     0.127369     0.390290     0.390570    Uiso  ? C
   C218       1.0     0.147463     0.381384     0.398144    Uiso  ? C
   C219       1.0     0.158136     0.365661     0.385722    Uiso  ? C
   H133       1.0     0.153580     0.361036     0.369724    Uiso  ? H
   C220       1.0     0.177528     0.357220     0.392805    Uiso  ? C
   H134       1.0     0.185788     0.345998     0.382830    Uiso  ? H
   C221       1.0     0.184796     0.362413     0.412932    Uiso  ? C
   H135       1.0     0.198365     0.353506     0.419694    Uiso  ? H
   C222       1.0     0.174283     0.377553     0.426339    Uiso  ? C
   C223       1.0     0.155697     0.387229     0.418229    Uiso  ? C
   H136       1.0     0.148415     0.400090     0.427960    Uiso  ? H
   C224       1.0     0.183087     0.384494     0.448528    Uiso  ? C
   C225       1.0     0.796826     0.392637     0.541212    Uiso  ? C
   C226       1.0     0.787753     0.401079     0.562464    Uiso  ? C
   C227       1.0     0.776945     0.386999     0.576406    Uiso  ? C
   H137       1.0     0.772986     0.371295     0.571765    Uiso  ? H
   C228       1.0     0.768528     0.396454     0.595659    Uiso  ? C
   H138       1.0     0.757221     0.388231     0.605191    Uiso  ? H
   C229       1.0     0.771657     0.417864     0.600971    Uiso  ? C
   H139       1.0     0.761791     0.424392     0.614313    Uiso  ? H
   C230       1.0     0.784645     0.430163     0.588341    Uiso  ? C
   C231       1.0     0.792253     0.422615     0.568272    Uiso  ? C
   H140       1.0     0.803355     0.432123     0.558541    Uiso  ? H
   C232       1.0     0.789803     0.451627     0.595955    Uiso  ? C
   C233       1.0     0.788483     0.402065     0.491109    Uiso  ? C
   C234       1.0     0.771209     0.413703     0.480585    Uiso  ? C
   C235       1.0     0.751113     0.404368     0.479121    Uiso  ? C
   H141       1.0     0.749732     0.389858     0.486528    Uiso  ? H
   C236       1.0     0.734609     0.414674     0.468626    Uiso  ? C
   H142       1.0     0.718194     0.407516     0.468420    Uiso  ? H
   C237       1.0     0.737955     0.433417     0.456060    Uiso  ? C
   H143       1.0     0.725259     0.440718     0.446658    Uiso  ? H
   C238       1.0     0.758029     0.443198     0.457230    Uiso  ? C
   C239       1.0     0.775110     0.433486     0.470205    Uiso  ? C
   H144       1.0     0.789390     0.443657     0.475267    Uiso  ? H
   C240       1.0     0.762819     0.462562     0.444456    Uiso  ? C
   C241       1.0     0.840800     0.366601     0.542895    Uiso  ? C
   C242       1.0     0.850632     0.360447     0.563548    Uiso  ? C
   C243       1.0     0.843653     0.341985     0.574202    Uiso  ? C
   H145       1.0     0.830894     0.331727     0.569479    Uiso  ? H
   C244       1.0     0.851891     0.337054     0.594549    Uiso  ? C
   H146       1.0     0.847082     0.323486     0.604145    Uiso  ? H
   C245       1.0     0.870483     0.348538     0.601528    Uiso  ? C
   H147       1.0     0.877620     0.345515     0.617287    Uiso  ? H
   C246       1.0     0.878155     0.366256     0.590895    Uiso  ? C
   C247       1.0     0.869112     0.371732     0.570943    Uiso  ? C
   H148       1.0     0.873718     0.386163     0.562890    Uiso  ? H
   C248       1.0     0.897301     0.378903     0.598990    Uiso  ? C
   C249       1.0     0.758065     0.530378     0.439733    Uiso  ? C
   C250       1.0     0.750540     0.550000     0.450214    Uiso  ? C
   C251       1.0     0.729665     0.558157     0.447220    Uiso  ? C
   H149       1.0     0.718363     0.547973     0.438702    Uiso  ? H
   C252       1.0     0.722183     0.575327     0.460410    Uiso  ? C
   H150       1.0     0.705053     0.579780     0.458983    Uiso  ? H
   C253       1.0     0.736577     0.585467     0.473374    Uiso  ? C
   H151       1.0     0.731041     0.598680     0.483788    Uiso  ? H
   C254       1.0     0.757998     0.580243     0.475519    Uiso  ? C
   C255       1.0     0.764827     0.561870     0.463459    Uiso  ? C
   H152       1.0     0.780054     0.556333     0.466244    Uiso  ? H
   C256       1.0     0.772747     0.591032     0.490194    Uiso  ? C
   C257       1.0     0.784043     0.525771     0.393341    Uiso  ? C
   C258       1.0     0.793107     0.542640     0.378764    Uiso  ? C
   C259       1.0     0.782571     0.548209     0.359664    Uiso  ? C
   H153       1.0     0.768220     0.538056     0.355500    Uiso  ? H
   C260       1.0     0.790742     0.564732     0.346466    Uiso  ? C
   H154       1.0     0.783497     0.568236     0.331473    Uiso  ? H
   C261       1.0     0.809157     0.575503     0.352372    Uiso  ? C
   H155       1.0     0.814733     0.588867     0.341865    Uiso  ? H
   C262       1.0     0.819993     0.571085     0.371932    Uiso  ? C
   C263       1.0     0.812235     0.553723     0.383605    Uiso  ? C
   H156       1.0     0.820613     0.549233     0.397836    Uiso  ? H
   C264       1.0     0.839608     0.581722     0.377717    Uiso  ? C
   C265       1.0     0.892034     0.414424     0.635743    Uiso  ? C
   C266       1.0     0.871588     0.422508     0.645499    Uiso  ? C
   C267       1.0     0.863499     0.415127     0.665442    Uiso  ? C
   H157       1.0     0.872193     0.402246     0.673506    Uiso  ? H
   C268       1.0     0.845069     0.424182     0.673532    Uiso  ? C
   H158       1.0     0.838534     0.418761     0.688976    Uiso  ? H
   C269       1.0     0.832991     0.439580     0.662090    Uiso  ? C
   H159       1.0     0.817548     0.444602     0.667628    Uiso  ? H
   C270       1.0     0.840609     0.446482     0.641963    Uiso  ? C
   C271       1.0     0.860107     0.438986     0.634727    Uiso  ? C
   H160       1.0     0.866157     0.446988     0.620257    Uiso  ? H
   C272       1.0     0.828504     0.462708     0.630301    Uiso  ? C
   C273       1.0     0.152512     0.379508     0.586143    Uiso  ? C
   C274       1.0     0.163602     0.366154     0.570637    Uiso  ? C
   C275       1.0     0.170052     0.346019     0.576290    Uiso  ? C
   H161       1.0     0.165292     0.338240     0.590985    Uiso  ? H
   C276       1.0     0.181764     0.334061     0.561533    Uiso  ? C
   H162       1.0     0.184806     0.317890     0.565164    Uiso  ? H
   C277       1.0     0.187529     0.342953     0.541261    Uiso  ? C
   H163       1.0     0.195497     0.332591     0.528544    Uiso  ? H
   C278       1.0     0.180493     0.362892     0.535037    Uiso  ? C
   C279       1.0     0.168114     0.374917     0.550035    Uiso  ? C
   H164       1.0     0.161301     0.390300     0.545401    Uiso  ? H
   C280       1.0     0.186223     0.371987     0.514596    Uiso  ? C
   C281       1.0     0.221736     0.416401     0.452106    Uiso  ? C
   C282       1.0     0.231753     0.427746     0.434423    Uiso  ? C
   C283       1.0     0.246068     0.417861     0.420664    Uiso  ? C
   H165       1.0     0.252589     0.402368     0.423709    Uiso  ? H
   C284       1.0     0.251221     0.427377     0.400855    Uiso  ? C
   H166       1.0     0.262797     0.421010     0.389620    Uiso  ? H
   C285       1.0     0.243314     0.446994     0.395211    Uiso  ? C
   H167       1.0     0.247420     0.455066     0.379586    Uiso  ? H
   C286       1.0     0.227389     0.456693     0.407636    Uiso  ? C
   C287       1.0     0.223036     0.448553     0.427841    Uiso  ? C
   H168       1.0     0.209757     0.456663     0.436516    Uiso  ? H
   C288       1.0     0.216856     0.477621     0.401382    Uiso  ? C
   O109       1.0     0.883998     0.396923     0.412304    Uiso  ? O
   O110       1.0     0.873405     0.378891     0.384091    Uiso  ? O
   O111       1.0     0.861852     0.431738     0.385260    Uiso  ? O
   O112       1.0     0.868581     0.422312     0.351882    Uiso  ? O
   O113       1.0     0.118705     0.436987     0.377552    Uiso  ? O
   O114       1.0     0.120418     0.409629     0.353816    Uiso  ? O
   O115       1.0     0.116636     0.401265     0.404220    Uiso  ? O
   O116       1.0     0.121574     0.389237     0.370225    Uiso  ? O
   O117       1.0     0.807756     0.405763     0.529266    Uiso  ? O
   O118       1.0     0.799099     0.372387     0.538005    Uiso  ? O
   O119       1.0     0.803059     0.412165     0.501869    Uiso  ? O
   O120       1.0     0.787300     0.381569     0.492523    Uiso  ? O
   O121       1.0     0.832764     0.380119     0.476057    Uiso  ? O
   O122       1.0     0.830922     0.347399     0.486855    Uiso  ? O
   O123       1.0     0.849077     0.381440     0.531345    Uiso  ? O
   O124       1.0     0.822956     0.358567     0.536668    Uiso  ? O
   O125       1.0     0.778348     0.527376     0.437137    Uiso  ? O
   O126       1.0     0.744642     0.516210     0.432846    Uiso  ? O
   O127       1.0     0.791026     0.524358     0.412853    Uiso  ? O
   O128       1.0     0.771219     0.510856     0.385873    Uiso  ? O
   O129       1.0     0.802830     0.477849     0.407652    Uiso  ? O
   O130       1.0     0.776837     0.485692     0.385233    Uiso  ? O
   O131       1.0     0.772217     0.478863     0.452805    Uiso  ? O
   O132       1.0     0.755821     0.463212     0.425154    Uiso  ? O
   O133       1.0     0.103646     0.426551     0.620841    Uiso  ? O
   O134       1.0     0.102507     0.395379     0.637687    Uiso  ? O
   O135       1.0     0.110602     0.391356     0.586052    Uiso  ? O
   O136       1.0     0.107044     0.378232     0.619043    Uiso  ? O
   O137       1.0     0.138916     0.393491     0.578957    Uiso  ? O
   O138       1.0     0.154823     0.375782     0.606225    Uiso  ? O
   O139       1.0     0.156194     0.428979     0.607225    Uiso  ? O
   O140       1.0     0.151983     0.417024     0.640600    Uiso  ? O
   O141       1.0     0.186915     0.391552     0.513010    Uiso  ? O
   O142       1.0     0.194059     0.360771     0.499463    Uiso  ? O
   O143       1.0     0.172663     0.395782     0.461996    Uiso  ? O
   O144       1.0     0.202852     0.378903     0.452806    Uiso  ? O
   O145       1.0     0.210708     0.426367     0.466277    Uiso  ? O
   O146       1.0     0.225489     0.396015     0.454058    Uiso  ? O
   O147       1.0     0.216626     0.425606     0.493978    Uiso  ? O
   O148       1.0     0.235172     0.394811     0.499168    Uiso  ? O
   O149       1.0     0.835322     0.504832     0.621512    Uiso  ? O
   O150       1.0     0.808710     0.508585     0.644511    Uiso  ? O
   O151       1.0     0.801895     0.516502     0.587484    Uiso  ? O
   O152       1.0     0.772497     0.507146     0.603553    Uiso  ? O
   O153       1.0     0.802027     0.463374     0.584365    Uiso  ? O
   O154       1.0     0.785342     0.458128     0.616139    Uiso  ? O
   O155       1.0     0.837898     0.476271     0.617762    Uiso  ? O
   O156       1.0     0.808485     0.463734     0.633295    Uiso  ? O
   O157       1.0     0.897020     0.452549     0.417466    Uiso  ? O
   O158       1.0     0.859006     0.414319     0.502754    Uiso  ? O
   O159       1.0     0.819881     0.496536     0.453461    Uiso  ? O
   O160       1.0     0.116135     0.444142     0.578026    Uiso  ? O
   O161       1.0     0.164809     0.432746     0.498721    Uiso  ? O
   O162       1.0     0.842088     0.492293     0.569335    Uiso  ? O
   Zn25       1.0     0.891260     0.426478     0.396873    Uiso  ? Zn
   Zn26       1.0     0.887232     0.395647     0.359903    Uiso  ? Zn
   Zn27       1.0     0.832780     0.394730     0.506314    Uiso  ? Zn
   Zn28       1.0     0.804815     0.355999     0.507532    Uiso  ? Zn
   Zn29       1.0     0.793222     0.496256     0.432721    Uiso  ? Zn
   Zn30       1.0     0.751245     0.492280     0.408174    Uiso  ? Zn
   Zn31       1.0     0.125434     0.419970     0.597746    Uiso  ? Zn
   Zn32       1.0     0.137113     0.389065     0.632264    Uiso  ? Zn
   Zn33       1.0     0.186935     0.411415     0.487123    Uiso  ? Zn
   Zn34       1.0     0.217714     0.375000     0.481537    Uiso  ? Zn
   Zn35       1.0     0.820353     0.490147     0.594037    Uiso  ? Zn
   Zn36       1.0     0.785278     0.489368     0.629121    Uiso  ? Zn
   C289       1.0     0.142194     0.618511     0.598878    Uiso  ? C
   C290       1.0     0.159693     0.629995     0.586434    Uiso  ? C
   C291       1.0     0.176023     0.642386     0.597115    Uiso  ? C
   H169       1.0     0.175198     0.643441     0.614667    Uiso  ? H
   C292       1.0     0.192690     0.651648     0.584742    Uiso  ? C
   H170       1.0     0.207093     0.657455     0.593134    Uiso  ? H
   C293       1.0     0.193265     0.651376     0.563163    Uiso  ? C
   H171       1.0     0.204495     0.660468     0.554912    Uiso  ? H
   C294       1.0     0.177594     0.639118     0.552311    Uiso  ? C
   C295       1.0     0.161829     0.627515     0.563755    Uiso  ? C
   H172       1.0     0.150793     0.617713     0.555745    Uiso  ? H
   C296       1.0     0.179395     0.634822     0.528048    Uiso  ? C
   C297       1.0     0.153016     0.579434     0.623915    Uiso  ? C
   C298       1.0     0.175761     0.574758     0.626848    Uiso  ? C
   C299       1.0     0.189989     0.585841     0.640900    Uiso  ? C
   H173       1.0     0.184276     0.597909     0.651458    Uiso  ? H
   C300       1.0     0.212089     0.581610     0.641151    Uiso  ? C
   H174       1.0     0.223100     0.589637     0.653123    Uiso  ? H
   C301       1.0     0.220473     0.565748     0.627684    Uiso  ? C
   H175       1.0     0.237124     0.563393     0.627272    Uiso  ? H
   C302       1.0     0.206669     0.552320     0.615183    Uiso  ? C
   C303       1.0     0.184959     0.557847     0.614056    Uiso  ? C
   H176       1.0     0.174460     0.547430     0.604588    Uiso  ? H
   C304       1.0     0.215275     0.532867     0.603742    Uiso  ? C
   C305       1.0     0.883301     0.570284     0.641632    Uiso  ? C
   C306       1.0     0.868308     0.556304     0.653126    Uiso  ? C
   C307       1.0     0.864003     0.558857     0.675206    Uiso  ? C
   H177       1.0     0.870897     0.572086     0.683608    Uiso  ? H
   C308       1.0     0.849632     0.545442     0.685515    Uiso  ? C
   H178       1.0     0.845478     0.548426     0.702308    Uiso  ? H
   C309       1.0     0.838497     0.528952     0.674677    Uiso  ? C
   H179       1.0     0.825753     0.519367     0.683384    Uiso  ? H
   C310       1.0     0.841576     0.526867     0.652633    Uiso  ? C
   C311       1.0     0.855851     0.541078     0.641825    Uiso  ? C
   H180       1.0     0.858643     0.539343     0.624304    Uiso  ? H
   C312       1.0     0.828238     0.511569     0.640021    Uiso  ? C
   C313       1.0     0.888048     0.621665     0.596090    Uiso  ? C
   C314       1.0     0.871453     0.634222     0.584964    Uiso  ? C
   C315       1.0     0.867250     0.655255     0.591263    Uiso  ? C
   H181       1.0     0.878177     0.663076     0.602264    Uiso  ? H
   C316       1.0     0.849493     0.665749     0.583256    Uiso  ? C
   H182       1.0     0.846611     0.682068     0.588728    Uiso  ? H
   C317       1.0     0.835424     0.655448     0.568680    Uiso  ? C
   H183       1.0     0.821939     0.663513     0.561418    Uiso  ? H
   C318       1.0     0.841743     0.635169     0.560583    Uiso  ? C
   C319       1.0     0.858932     0.623680     0.568948    Uiso  ? C
   H184       1.0     0.862690     0.607056     0.565270    Uiso  ? H
   C320       1.0     0.827971     0.625488     0.543725    Uiso  ? C
   C321       1.0     0.212924     0.603333     0.461275    Uiso  ? C
   C322       1.0     0.226946     0.590580     0.446566    Uiso  ? C
   C323       1.0     0.247117     0.597001     0.441446    Uiso  ? C
   H185       1.0     0.255908     0.608743     0.450737    Uiso  ? H
   C324       1.0     0.258876     0.586584     0.426013    Uiso  ? C
   H186       1.0     0.274731     0.593071     0.421730    Uiso  ? H
   C325       1.0     0.250770     0.569037     0.414925    Uiso  ? C
   H187       1.0     0.259442     0.559508     0.402618    Uiso  ? H
   C326       1.0     0.229195     0.562956     0.419112    Uiso  ? C
   C327       1.0     0.217880     0.573298     0.435310    Uiso  ? C
   H188       1.0     0.199558     0.569917     0.436949    Uiso  ? H
   C328       1.0     0.219362     0.545128     0.407059    Uiso  ? C
   C329       1.0     0.217110     0.609239     0.513117    Uiso  ? C
   C330       1.0     0.233343     0.599497     0.527670    Uiso  ? C
   C331       1.0     0.252938     0.610080     0.531205    Uiso  ? C
   H189       1.0     0.256636     0.626228     0.523230    Uiso  ? H
   C332       1.0     0.267597     0.601003     0.545622    Uiso  ? C
   H190       1.0     0.280893     0.609878     0.552764    Uiso  ? H
   C333       1.0     0.263955     0.580502     0.554767    Uiso  ? C
   H191       1.0     0.274509     0.573525     0.566347    Uiso  ? H
   C334       1.0     0.244655     0.569443     0.550935    Uiso  ? C
   C335       1.0     0.230327     0.578630     0.536015    Uiso  ? C
   H192       1.0     0.215396     0.569169     0.530494    Uiso  ? H
   C336       1.0     0.240984     0.547716     0.560644    Uiso  ? C
   C337       1.0     0.158468     0.645043     0.462979    Uiso  ? C
   C338       1.0     0.141259     0.653246     0.448430    Uiso  ? C
   C339       1.0     0.138159     0.675483     0.444204    Uiso  ? C
   H193       1.0     0.145589     0.688377     0.452336    Uiso  ? H
   C340       1.0     0.121204     0.681675     0.430018    Uiso  ? C
   H194       1.0     0.117887     0.698535     0.427448    Uiso  ? H
   C341       1.0     0.109916     0.665593     0.418330    Uiso  ? C
   H195       1.0     0.894140     0.671591     0.406904    Uiso  ? H
   C342       1.0     0.114786     0.643932     0.420743    Uiso  ? C
   C343       1.0     0.130011     0.638147     0.436091    Uiso  ? C
   H196       1.0     0.133901     0.621099     0.439627    Uiso  ? H
   C344       1.0     0.102650     0.627831     0.407804    Uiso  ? C
   C345       1.0     0.249640     0.478106     0.547954    Uiso  ? C
   C346       1.0     0.257800     0.459035     0.535801    Uiso  ? C
   C347       1.0     0.279704     0.451902     0.539215    Uiso  ? C
   H197       1.0     0.291201     0.460897     0.548585    Uiso  ? H
   C348       1.0     0.285754     0.433765     0.528290    Uiso  ? C
   H198       1.0     0.301633     0.427866     0.529780    Uiso  ? H
   C349       1.0     0.270849     0.421323     0.516345    Uiso  ? C
   H199       1.0     0.276810     0.406094     0.510621    Uiso  ? H
   C350       1.0     0.250160     0.428564     0.513051    Uiso  ? C
   C351       1.0     0.243565     0.447757     0.522004    Uiso  ? C
   H200       1.0     0.227264     0.453589     0.520805    Uiso  ? H
   C352       1.0     0.233221     0.415475     0.501794    Uiso  ? C
   C353       1.0     0.219324     0.483490     0.607551    Uiso  ? C
   C354       1.0     0.209571     0.468327     0.623214    Uiso  ? C
   C355       1.0     0.217839     0.465968     0.643599    Uiso  ? C
   H201       1.0     0.231769     0.476131     0.648336    Uiso  ? H
   C356       1.0     0.209442     0.452473     0.658927    Uiso  ? C
   H202       1.0     0.216875     0.453282     0.674481    Uiso  ? H
   C357       1.0     0.190499     0.441191     0.654731    Uiso  ? C
   H203       1.0     0.181983     0.432168     0.667413    Uiso  ? H
   C358       1.0     0.180520     0.442678     0.634126    Uiso  ? C
   C359       1.0     0.191141     0.456441     0.618488    Uiso  ? C
   H204       1.0     0.183762     0.459055     0.603056    Uiso  ? H
   C360       1.0     0.162262     0.428537     0.627135    Uiso  ? C
   C361       1.0     0.108478     0.584282     0.361708    Uiso  ? C
   C362       1.0     0.125022     0.572248     0.349766    Uiso  ? C
   C363       1.0     0.128548     0.575298     0.327883    Uiso  ? C
   H205       1.0     0.118683     0.587518     0.320104    Uiso  ? H
   C364       1.0     0.145281     0.565666     0.315483    Uiso  ? C
   H206       1.0     0.148616     0.572061     0.300228    Uiso  ? H
   C365       1.0     0.159078     0.551771     0.325840    Uiso  ? C
   H207       1.0     0.173026     0.545894     0.317653    Uiso  ? H
   C366       1.0     0.156266     0.547670     0.348550    Uiso  ? C
   C367       1.0     0.139043     0.557255     0.360258    Uiso  ? C
   H208       1.0     0.138258     0.555065     0.378587    Uiso  ? H
   C368       1.0     0.171391     0.534595     0.360305    Uiso  ? C
   C369       1.0     0.850703     0.623715     0.410583    Uiso  ? C
   C370       1.0     0.835416     0.634620     0.425603    Uiso  ? C
   C371       1.0     0.827962     0.656106     0.421780    Uiso  ? C
   H209       1.0     0.831585     0.665346     0.407355    Uiso  ? H
   C372       1.0     0.814442     0.666698     0.436551    Uiso  ? C
   H210       1.0     0.811207     0.682368     0.432784    Uiso  ? H
   C373       1.0     0.809416     0.657146     0.456731    Uiso  ? C
   H211       1.0     0.798571     0.665147     0.467241    Uiso  ? H
   C374       1.0     0.815548     0.636082     0.459742    Uiso  ? C
   C375       1.0     0.830088     0.625804     0.445388    Uiso  ? C
   H212       1.0     0.837251     0.610981     0.450828    Uiso  ? H
   C376       1.0     0.810361     0.625014     0.480169    Uiso  ? C
   C377       1.0     0.778410     0.582409     0.540800    Uiso  ? C
   C378       1.0     0.767482     0.568162     0.556449    Uiso  ? C
   C379       1.0     0.745387     0.569777     0.559838    Uiso  ? C
   H213       1.0     0.735736     0.580634     0.551895    Uiso  ? H
   C380       1.0     0.734778     0.552993     0.571605    Uiso  ? C
   H214       1.0     0.717406     0.554071     0.573287    Uiso  ? H
   C381       1.0     0.747100     0.536250     0.580371    Uiso  ? C
   H215       1.0     0.738300     0.524133     0.588612    Uiso  ? H
   C382       1.0     0.769652     0.537195     0.580215    Uiso  ? C
   C383       1.0     0.780107     0.554235     0.569438    Uiso  ? C
   H216       1.0     0.797818     0.553501     0.569763    Uiso  ? H
   C384       1.0     0.782144     0.519518     0.590961    Uiso  ? C
   O163       1.0     0.128442     0.606544     0.588768    Uiso  ? O
   O164       1.0     0.141906     0.619201     0.619515    Uiso  ? O
   O165       1.0     0.141666     0.567591     0.612924    Uiso  ? O
   O166       1.0     0.145935     0.597034     0.633468    Uiso  ? O
   O167       1.0     0.880317     0.574039     0.621472    Uiso  ? O
   O168       1.0     0.102094     0.579548     0.651815    Uiso  ? O
   O169       1.0     0.102359     0.607383     0.586078    Uiso  ? O
   O170       1.0     0.888822     0.622072     0.616441    Uiso  ? O
   O171       1.0     0.198353     0.593904     0.472668    Uiso  ? O
   O172       1.0     0.216676     0.623569     0.464105    Uiso  ? O
   O173       1.0     0.203495     0.597057     0.503609    Uiso  ? O
   O174       1.0     0.217174     0.629194     0.509022    Uiso  ? O
   O175       1.0     0.167834     0.620107     0.518606    Uiso  ? O
   O176       1.0     0.193572     0.644812     0.517866    Uiso  ? O
   O177       1.0     0.161022     0.625167     0.464409    Uiso  ? O
   O178       1.0     0.170932     0.657403     0.472185    Uiso  ? O
   O179       1.0     0.229653     0.483064     0.547771    Uiso  ? O
   O180       1.0     0.261279     0.488108     0.561398    Uiso  ? O
   O181       1.0     0.206816     0.492900     0.594417    Uiso  ? O
   O182       1.0     0.238743     0.488296     0.608347    Uiso  ? O
   O183       1.0     0.202291     0.519993     0.593953    Uiso  ? O
   O184       1.0     0.234970     0.533400     0.599827    Uiso  ? O
   O185       1.0     0.226016     0.535407     0.552876    Uiso  ? O
   O186       1.0     0.252362     0.541475     0.577050    Uiso  ? O
   O187       1.0     0.897919     0.576301     0.378732    Uiso  ? O
   O188       1.0     0.897373     0.601253     0.354394    Uiso  ? O
   O189       1.0     0.102081     0.608502     0.414699    Uiso  ? O
   O190       1.0     0.888745     0.633840     0.391212    Uiso  ? O
   O191       1.0     0.853671     0.603558     0.413766    Uiso  ? O
   O192       1.0     0.859437     0.633297     0.394303    Uiso  ? O
   O193       1.0     0.846942     0.579664     0.396828    Uiso  ? O
   O194       1.0     0.847642     0.595888     0.364564    Uiso  ? O
   O195       1.0     0.812334     0.604531     0.482285    Uiso  ? O
   O196       1.0     0.801218     0.635421     0.494934    Uiso  ? O
   O197       1.0     0.835201     0.614694     0.527833    Uiso  ? O
   O198       1.0     0.808146     0.627915     0.545616    Uiso  ? O
   O199       1.0     0.797881     0.579359     0.535535    Uiso  ? O
   O200       1.0     0.768997     0.597888     0.532568    Uiso  ? O
   O201       1.0     0.793148     0.587319     0.487971    Uiso  ? O
   O202       1.0     0.766533     0.603285     0.505264    Uiso  ? O
   O203       1.0     0.170473     0.497157     0.375152    Uiso  ? O
   O204       1.0     0.202125     0.486182     0.363390    Uiso  ? O
   O205       1.0     0.202665     0.487359     0.412736    Uiso  ? O
   O206       1.0     0.219654     0.484211     0.382066    Uiso  ? O
   O207       1.0     0.199209     0.542038     0.408039    Uiso  ? O
   O208       1.0     0.230234     0.532267     0.396232    Uiso  ? O
   O209       1.0     0.164454     0.521173     0.374921    Uiso  ? O
   O210       1.0     0.191794     0.535887     0.357467    Uiso  ? O
   O211       1.0     0.104507     0.556953     0.576933    Uiso  ? O
   O212       1.0     0.148070     0.583212     0.489735    Uiso  ? O
   O213       1.0     0.186975     0.500035     0.543595    Uiso  ? O
   O214       1.0     0.888184     0.557747     0.424130    Uiso  ? O
   O215       1.0     0.843024     0.569125     0.511526    Uiso  ? O
   O216       1.0     0.160138     0.509530     0.430671    Uiso  ? O
   Zn37       1.0     0.111895     0.579560     0.600686    Uiso  ? Zn
   Zn38       1.0     0.113859     0.607578     0.638676    Uiso  ? Zn
   Zn39       1.0     0.172894     0.607101     0.488684    Uiso  ? Zn
   Zn40       1.0     0.201569     0.647159     0.484691    Uiso  ? Zn
   Zn41       1.0     0.212371     0.506511     0.563253    Uiso  ? Zn
   Zn42       1.0     0.255414     0.508757     0.587818    Uiso  ? Zn
   Zn43       1.0     0.880416     0.584287     0.404581    Uiso  ? Zn
   Zn44       1.0     0.872912     0.618323     0.366255    Uiso  ? Zn
   Zn45       1.0     0.818038     0.591015     0.512547    Uiso  ? Zn
   Zn46       1.0     0.786093     0.626178     0.522094    Uiso  ? Zn
   Zn47       1.0     0.181551     0.512665     0.404050    Uiso  ? Zn
   Zn48       1.0     0.216657     0.516024     0.369715    Uiso  ? Zn
   H217       1.0     0.141101     0.581231     0.475736    Uiso  ? H
   H218       1.0     0.146021     0.574778     0.502091    Uiso  ? H
   H219       1.0     0.868838     0.416946     0.490520    Uiso  ? H
   H220       1.0     0.862179     0.422549     0.515716    Uiso  ? H
   H221       1.0     0.846977     0.479095     0.563378    Uiso  ? H
   H222       1.0     0.846879     0.506893     0.567118    Uiso  ? H
   H223       1.0     0.109853     0.456276     0.585090    Uiso  ? H
   H224       1.0     0.122491     0.445140     0.563264    Uiso  ? H
   H225       1.0     0.150441     0.522225     0.434209    Uiso  ? H
   H226       1.0     0.159810     0.496112     0.436972    Uiso  ? H
   H227       1.0     0.897894     0.449421     0.432980    Uiso  ? H
   H228       1.0     0.895405     0.466124     0.411530    Uiso  ? H
   H229       1.0     0.156227     0.442540     0.489936    Uiso  ? H
   H230       1.0     0.160973     0.432420     0.513726    Uiso  ? H
   H231       1.0     0.106821     0.551848     0.423952    Uiso  ? H
   H232       1.0     0.876248     0.549599     0.428878    Uiso  ? H
   H233       1.0     0.831090     0.505413     0.447323    Uiso  ? H
   H234       1.0     0.823773     0.483552     0.460410    Uiso  ? H
   H235       1.0     0.855652     0.573802     0.503566    Uiso  ? H
   H236       1.0     0.843365     0.560626     0.524808    Uiso  ? H
   H237       1.0     0.184012     0.486103     0.538528    Uiso  ? H
   H238       1.0     0.177592     0.512115     0.540580    Uiso  ? H
   H239       1.0     0.103445     0.562163     0.562323    Uiso  ? H
   H240       1.0     0.896875     0.542733     0.581355    Uiso  ? H
   C385       1.0     0.639856     0.856813     0.443900    Uiso  ? C
   C386       1.0     0.646861     0.838780     0.456819    Uiso  ? C
   C387       1.0     0.667651     0.830220     0.453299    Uiso  ? C
   H241       1.0     0.678763     0.836606     0.441966    Uiso  ? H
   C388       1.0     0.673369     0.811604     0.463483    Uiso  ? C
   H242       1.0     0.687742     0.804188     0.457718    Uiso  ? H
   C389       1.0     0.659769     0.800762     0.477660    Uiso  ? C
   H243       1.0     0.664699     0.784178     0.482603    Uiso  ? H
   C390       1.0     0.639002     0.808793     0.480794    Uiso  ? C
   C391       1.0     0.632931     0.828217     0.470376    Uiso  ? C
   H244       1.0     0.617215     0.836009     0.473061    Uiso  ? H
   C392       1.0     0.623956     0.796354     0.494280    Uiso  ? C
   C393       1.0     0.607105     0.864562     0.387458    Uiso  ? C
   C394       1.0     0.595674     0.850801     0.371601    Uiso  ? C
   C395       1.0     0.607340     0.841830     0.353868    Uiso  ? C
   H245       1.0     0.623664     0.845976     0.350413    Uiso  ? H
   C396       1.0     0.596695     0.826716     0.340881    Uiso  ? C
   H246       1.0     0.604849     0.818438     0.328790    Uiso  ? H
   C397       1.0     0.576574     0.818640     0.346541    Uiso  ? C
   H247       1.0     0.571414     0.805901     0.337928    Uiso  ? H
   C398       1.0     0.565146     0.827007     0.363080    Uiso  ? C
   C399       1.0     0.574705     0.843913     0.375531    Uiso  ? C
   H248       1.0     0.565966     0.848260     0.389243    Uiso  ? H
   C400       1.0     0.544134     0.817640     0.369625    Uiso  ? C
   C401       1.0     0.615623     0.119363     0.391888    Uiso  ? C
   C402       1.0     0.607902     0.136804     0.376656    Uiso  ? C
   C403       1.0     0.621765     0.146298     0.361530    Uiso  ? C
   H249       1.0     0.637764     0.140136     0.360369    Uiso  ? H
   C404       1.0     0.615472     0.162928     0.348668    Uiso  ? C
   H250       1.0     0.625908     0.170380     0.336411    Uiso  ? H
   C405       1.0     0.595564     0.171371     0.350953    Uiso  ? C
   H251       1.0     0.591021     0.186263     0.341772    Uiso  ? H
   C406       1.0     0.579927     0.159975     0.362905    Uiso  ? C
   C407       1.0     0.586316     0.143940     0.377081    Uiso  ? C
   H252       1.0     0.575787     0.135242     0.387109    Uiso  ? H
   C408       1.0     0.557270     0.167079     0.365345    Uiso  ? C
   C409       1.0     0.645258     0.128057     0.432537    Uiso  ? C
   C410       1.0     0.650852     0.150366     0.438670    Uiso  ? C
   C411       1.0     0.667153     0.161585     0.429117    Uiso  ? C
   H253       1.0     0.678878     0.155533     0.418288    Uiso  ? H
   C412       1.0     0.672218     0.182623     0.434768    Uiso  ? C
   H254       1.0     0.686221     0.191599     0.427082    Uiso  ? H
   C413       1.0     0.658926     0.193761     0.449453    Uiso  ? C
   H255       1.0     0.662124     0.209275     0.453551    Uiso  ? H
   C414       1.0     0.641326     0.182547     0.458773    Uiso  ? C
   C415       1.0     0.638663     0.161190     0.454315    Uiso  ? C
   H256       1.0     0.625669     0.153301     0.461948    Uiso  ? H
   C416       1.0     0.627338     0.192663     0.474984    Uiso  ? C
   C417       1.0     0.576811     0.762292     0.553920    Uiso  ? C
   C418       1.0     0.567319     0.758689     0.574746    Uiso  ? C
   C419       1.0     0.578538     0.747731     0.590911    Uiso  ? C
   H257       1.0     0.594312     0.740888     0.588811    Uiso  ? H
   C420       1.0     0.570859     0.745188     0.611449    Uiso  ? C
   H258       1.0     0.581108     0.737183     0.623846    Uiso  ? H
   C421       1.0     0.552154     0.755568     0.618128    Uiso  ? C
   H259       1.0     0.547645     0.754439     0.635898    Uiso  ? H
   C422       1.0     0.540669     0.767893     0.602588    Uiso  ? C
   C423       1.0     0.548364     0.768890     0.581153    Uiso  ? C
   H260       1.0     0.538401     0.775977     0.568144    Uiso  ? H
   C424       1.0     0.522849     0.782660     0.609367    Uiso  ? C
   C425       1.0     0.568725     0.761714     0.486854    Uiso  ? C
   C426       1.0     0.557490     0.753441     0.467859    Uiso  ? C
   C427       1.0     0.553835     0.731658     0.464632    Uiso  ? C
   H261       1.0     0.558694     0.721010     0.477317    Uiso  ? H
   C428       1.0     0.545759     0.723927     0.444924    Uiso  ? C
   H262       1.0     0.544292     0.706836     0.443038    Uiso  ? H
   C429       1.0     0.538942     0.738897     0.429400    Uiso  ? C
   H263       1.0     0.534611     0.732215     0.414193    Uiso  ? H
   C430       1.0     0.540714     0.760893     0.433004    Uiso  ? C
   C431       1.0     0.550714     0.767497     0.451615    Uiso  ? C
   H264       1.0     0.552093     0.783864     0.454386    Uiso  ? H
   C432       1.0     0.532185     0.775680     0.416234    Uiso  ? C
   C433       1.0     0.616336     0.797032     0.545136    Uiso  ? C
   C434       1.0     0.625765     0.807821     0.563561    Uiso  ? C
   C435       1.0     0.639089     0.796542     0.577470    Uiso  ? C
   H265       1.0     0.642105     0.779942     0.574838    Uiso  ? H
   C436       1.0     0.649202     0.806463     0.594430    Uiso  ? C
   H266       1.0     0.659954     0.797327     0.603841    Uiso  ? H
   C437       1.0     0.646956     0.828219     0.597345    Uiso  ? C
   H267       1.0     0.655223     0.835638     0.610754    Uiso  ? H
   C438       1.0     0.630667     0.839414     0.586587    Uiso  ? C
   C439       1.0     0.620222     0.829663     0.568677    Uiso  ? C
   H268       1.0     0.608913     0.837370     0.558647    Uiso  ? H
   C440       1.0     0.626922     0.861892     0.592858    Uiso  ? C
   C441       1.0     0.482480     0.777761     0.409084    Uiso  ? C
   C442       1.0     0.466902     0.764562     0.420239    Uiso  ? C
   C443       1.0     0.467899     0.742127     0.417925    Uiso  ? C
   H269       1.0     0.477900     0.734324     0.405526    Uiso  ? H
   C444       1.0     0.458085     0.729261     0.433427    Uiso  ? C
   H270       1.0     0.459202     0.711155     0.432538    Uiso  ? H
   C445       1.0     0.444605     0.737970     0.448793    Uiso  ? C
   H271       1.0     0.436301     0.726638     0.458782    Uiso  ? H
   C446       1.0     0.442127     0.760271     0.451052    Uiso  ? C
   C447       1.0     0.452927     0.773951     0.436022    Uiso  ? C
   H272       1.0     0.452039     0.791014     0.437673    Uiso  ? H
   C448       1.0     0.429890     0.769975     0.469188    Uiso  ? C
   C449       1.0     0.475182     0.813921     0.374110    Uiso  ? C
   C450       1.0     0.456073     0.823398     0.363328    Uiso  ? C
   C451       1.0     0.451999     0.819353     0.341584    Uiso  ? C
   H273       1.0     0.461743     0.809999     0.331574    Uiso  ? H
   C452       1.0     0.436502     0.830734     0.331487    Uiso  ? C
   H274       1.0     0.434245     0.829288     0.313300    Uiso  ? H
   C453       1.0     0.422626     0.843737     0.341888    Uiso  ? C
   H275       1.0     0.410405     0.852264     0.333341    Uiso  ? H
   C454       1.0     0.425105     0.847037     0.364334    Uiso  ? C
   C455       1.0     0.442703     0.837327     0.374760    Uiso  ? C
   H276       1.0     0.445772     0.840584     0.391315    Uiso  ? H
   C456       1.0     0.411023     0.862752     0.376086    Uiso  ? C
   C457       1.0     0.593835     0.873829     0.626260    Uiso  ? C
   C458       1.0     0.582216     0.855896     0.638130    Uiso  ? C
   C459       1.0     0.594047     0.844587     0.654367    Uiso  ? C
   H277       1.0     0.609960     0.850270     0.658391    Uiso  ? H
   C460       1.0     0.584654     0.826743     0.663168    Uiso  ? C
   H278       1.0     0.593978     0.818207     0.675285    Uiso  ? H
   C461       1.0     0.564043     0.820451     0.658672    Uiso  ? C
   H279       1.0     0.555920     0.806185     0.666050    Uiso  ? H
   C462       1.0     0.551479     0.831614     0.642607    Uiso  ? C
   C463       1.0     0.560969     0.849533     0.632792    Uiso  ? C
   H280       1.0     0.551305     0.857813     0.619356    Uiso  ? H
   C464       1.0     0.529214     0.825854     0.636735    Uiso  ? C
   C465       1.0     0.634233     0.134410     0.580291    Uiso  ? C
   C466       1.0     0.644710     0.153305     0.568560    Uiso  ? C
   C467       1.0     0.665381     0.162381     0.573412    Uiso  ? C
   H281       1.0     0.673202     0.157179     0.588042    Uiso  ? H
   C468       1.0     0.672802     0.180639     0.562161    Uiso  ? C
   H282       1.0     0.687978     0.187979     0.566816    Uiso  ? H
   C469       1.0     0.660694     0.189007     0.544980    Uiso  ? C
   H283       1.0     0.666437     0.202650     0.536392    Uiso  ? H
   C470       1.0     0.640869     0.181376     0.540493    Uiso  ? C
   C471       1.0     0.633180     0.163117     0.551566    Uiso  ? C
   H284       1.0     0.617853     0.157288     0.546966    Uiso  ? H
   C472       1.0     0.627014     0.193524     0.525131    Uiso  ? C
   C473       1.0     0.590501     0.224029     0.459372    Uiso  ? C
   C474       1.0     0.585064     0.228228     0.435577    Uiso  ? C
   C475       1.0     0.598675     0.241719     0.423481    Uiso  ? C
   H285       1.0     0.612647     0.249409     0.431463    Uiso  ? H
   C476       1.0     0.593592     0.245010     0.401830    Uiso  ? C
   H286       1.0     0.605194     0.256478     0.392781    Uiso  ? H
   C477       1.0     0.575151     0.235888     0.392402    Uiso  ? C
   H287       1.0     0.571373     0.241572     0.376579    Uiso  ? H
   C478       1.0     0.563006     0.220509     0.403438    Uiso  ? C
   C479       1.0     0.567239     0.218097     0.425648    Uiso  ? C
   H288       1.0     0.558381     0.206991     0.434639    Uiso  ? H
   C480       1.0     0.545308     0.208430     0.392787    Uiso  ? C
   O217       1.0     0.620628     0.859900     0.441704    Uiso  ? O
   O218       1.0     0.653557     0.868141     0.433761    Uiso  ? O
   O219       1.0     0.597413     0.877710     0.401642    Uiso  ? O
   O220       1.0     0.627354     0.863303     0.387699    Uiso  ? O
   O221       1.0     0.602470     0.108193     0.403743    Uiso  ? O
   O222       1.0     0.636385     0.114275     0.392863    Uiso  ? O
   O223       1.0     0.629621     0.118206     0.441494    Uiso  ? O
   O224       1.0     0.653480     0.120864     0.415381    Uiso  ? O
   O225       1.0     0.567380     0.774101     0.540848    Uiso  ? O
   O226       1.0     0.596225     0.758101     0.550968    Uiso  ? O
   O227       1.0     0.575291     0.781031     0.487387    Uiso  ? O
   O228       1.0     0.577126     0.748659     0.500381    Uiso  ? O
   O229       1.0     0.609931     0.806742     0.505868    Uiso  ? O
   O230       1.0     0.624498     0.776195     0.495790    Uiso  ? O
   O231       1.0     0.603751     0.808156     0.533855    Uiso  ? O
   O232       1.0     0.616047     0.776438     0.543028    Uiso  ? O
   O233       1.0     0.482266     0.798598     0.411026    Uiso  ? O
   O234       1.0     0.496200     0.768036     0.397483    Uiso  ? O
   O235       1.0     0.479762     0.817699     0.393879    Uiso  ? O
   O236       1.0     0.487422     0.802400     0.362867    Uiso  ? O
   O237       1.0     0.530376     0.827780     0.381261    Uiso  ? O
   O238       1.0     0.541727     0.797846     0.366928    Uiso  ? O
   O239       1.0     0.529650     0.794818     0.421473    Uiso  ? O
   O240       1.0     0.523218     0.768943     0.398833    Uiso  ? O
   O241       1.0     0.583415     0.885782     0.613678    Uiso  ? O
   O242       1.0     0.614005     0.875468     0.626922    Uiso  ? O
   O243       1.0     0.616673     0.873098     0.578990    Uiso  ? O
   O244       1.0     0.633438     0.870320     0.610609    Uiso  ? O
   O245       1.0     0.613823     0.131671     0.577926    Uiso  ? O
   O246       1.0     0.644779     0.122411     0.592727    Uiso  ? O
   O247       1.0     0.586577     0.118630     0.613924    Uiso  ? O
   O248       1.0     0.613512     0.125761     0.635494    Uiso  ? O
   O249       1.0     0.613952     0.182875     0.513583    Uiso  ? O
   O250       1.0     0.629009     0.212925     0.522826    Uiso  ? O
   O251       1.0     0.613957     0.181556     0.486000    Uiso  ? O
   O252       1.0     0.626991     0.213469     0.476625    Uiso  ? O
   O253       1.0     0.577952     0.212044     0.471181    Uiso  ? O
   O254       1.0     0.607817     0.232654     0.467505    Uiso  ? O
   O255       1.0     0.575967     0.213647     0.528569    Uiso  ? O
   O256       1.0     0.582855     0.245330     0.513461    Uiso  ? O
   O257       1.0     0.462448     0.827207     0.617334    Uiso  ? O
   O258       1.0     0.466199     0.815632     0.650493    Uiso  ? O
   O259       1.0     0.485026     0.791574     0.592935    Uiso  ? O
   O260       1.0     0.471906     0.776619     0.621846    Uiso  ? O
   O261       1.0     0.511991     0.792574     0.595481    Uiso  ? O
   O262       1.0     0.518479     0.783915     0.629530    Uiso  ? O
   O263       1.0     0.519837     0.834495     0.621310    Uiso  ? O
   O264       1.0     0.520571     0.809296     0.645418    Uiso  ? O
   O265       1.0     0.585852     0.886452     0.454041    Uiso  ? O
   O266       1.0     0.552816     0.817813     0.516546    Uiso  ? O
   O267       1.0     0.513169     0.842658     0.425481    Uiso  ? O
   O268       1.0     0.573402     0.897123     0.561720    Uiso  ? O
   O269       1.0     0.563923     0.172802     0.499453    Uiso  ? O
   O270       1.0     0.496765     0.844111     0.583410    Uiso  ? O
   Zn49       1.0     0.609260     0.888189     0.432493    Uiso  ? Zn
   Zn50       1.0     0.650147     0.882329     0.404862    Uiso  ? Zn
   Zn51       1.0     0.578721     0.794804     0.516292    Uiso  ? Zn
   Zn52       1.0     0.606279     0.755382     0.516408    Uiso  ? Zn
   Zn53       1.0     0.510289     0.817828     0.405926    Uiso  ? Zn
   Zn54       1.0     0.513357     0.782618     0.369919    Uiso  ? Zn
   Zn55       1.0     0.598254     0.104599     0.585843    Uiso  ? Zn
   Zn56       1.0     0.634082     0.105861     0.620289    Uiso  ? Zn
   Zn57       1.0     0.586271     0.195741     0.499506    Uiso  ? Zn
   Zn58       1.0     0.613100     0.234638     0.500726    Uiso  ? Zn
   Zn59       1.0     0.493635     0.820345     0.606256    Uiso  ? Zn
   Zn60       1.0     0.488854     0.793182     0.645045    Uiso  ? Zn
   C481       1.0     0.374350     0.145530     0.568349    Uiso  ? C
   C482       1.0     0.370229     0.166502     0.557210    Uiso  ? C
   C483       1.0     0.355700     0.181686     0.566259    Uiso  ? C
   H289       1.0     0.347059     0.177459     0.581416    Uiso  ? H
   C484       1.0     0.351061     0.200980     0.555909    Uiso  ? C
   H290       1.0     0.338769     0.211418     0.561121    Uiso  ? H
   C485       1.0     0.363928     0.206213     0.538387    Uiso  ? C
   H291       1.0     0.362794     0.222123     0.531033    Uiso  ? H
   C486       1.0     0.379777     0.192178     0.530589    Uiso  ? C
   C487       1.0     0.380785     0.171969     0.538312    Uiso  ? C
   H292       1.0     0.391361     0.160107     0.531300    Uiso  ? H
   C488       1.0     0.395093     0.199693     0.512839    Uiso  ? C
   C489       1.0     0.402697     0.136059     0.608707    Uiso  ? C
   C490       1.0     0.411049     0.153332     0.623064    Uiso  ? C
   C491       1.0     0.397067     0.162341     0.639493    Uiso  ? C
   H293       1.0     0.379132     0.159416     0.639451    Uiso  ? H
   C492       1.0     0.406749     0.176084     0.654930    Uiso  ? C
   H294       1.0     0.398172     0.181510     0.668830    Uiso  ? H
   C493       1.0     0.427813     0.182138     0.651702    Uiso  ? C
   H295       1.0     0.434006     0.192816     0.662396    Uiso  ? H
   C494       1.0     0.440684     0.174817     0.634622    Uiso  ? C
   C495       1.0     0.432547     0.159264     0.621085    Uiso  ? C
   H296       1.0     0.442124     0.151993     0.608280    Uiso  ? H
   C496       1.0     0.462400     0.183498     0.630015    Uiso  ? C
   C497       1.0     0.400774     0.880921     0.617806    Uiso  ? C
   C498       1.0     0.411084     0.866526     0.634149    Uiso  ? C
   C499       1.0     0.400986     0.866053     0.654646    Uiso  ? C
   H297       1.0     0.385882     0.873880     0.656622    Uiso  ? H
   C500       1.0     0.410476     0.853168     0.670760    Uiso  ? C
   H298       1.0     0.404570     0.851837     0.685671    Uiso  ? H
   C501       1.0     0.428993     0.840537     0.664929    Uiso  ? C
   H299       1.0     0.436393     0.831267     0.677627    Uiso  ? H
   C502       1.0     0.437127     0.839213     0.643645    Uiso  ? C
   C503       1.0     0.427941     0.852758     0.628562    Uiso  ? C
   H300       1.0     0.431596     0.851102     0.611476    Uiso  ? H
   C504       1.0     0.455417     0.825504     0.636743    Uiso  ? C
   C505       1.0     0.364102     0.873795     0.561822    Uiso  ? C
   C506       1.0     0.356360     0.855790     0.548847    Uiso  ? C
   C507       1.0     0.334337     0.851968     0.548764    Uiso  ? C
   H301       1.0     0.323925     0.864621     0.557005    Uiso  ? H
   C508       1.0     0.326406     0.834227     0.539018    Uiso  ? C
   H302       1.0     0.309451     0.831649     0.539570    Uiso  ? H
   C509       1.0     0.340399     0.821181     0.527454    Uiso  ? C
   H303       1.0     0.335708     0.806357     0.518933    Uiso  ? H
   C510       1.0     0.363135     0.824250     0.526683    Uiso  ? C
   C511       1.0     0.370638     0.842099     0.538429    Uiso  ? C
   H304       1.0     0.388665     0.845278     0.540392    Uiso  ? H
   C512       1.0     0.378215     0.808121     0.517207    Uiso  ? C
   C513       1.0     0.444745     0.229535     0.452307    Uiso  ? C
   C514       1.0     0.457423     0.236879     0.433004    Uiso  ? C
   C515       1.0     0.453073     0.257542     0.424701    Uiso  ? C
   H305       1.0     0.439592     0.266726     0.431788    Uiso  ? H
   C516       1.0     0.464100     0.263729     0.405486    Uiso  ? C
   H306       1.0     0.459841     0.278362     0.398868    Uiso  ? H
   C517       1.0     0.476930     0.248777     0.394046    Uiso  ? C
   H307       1.0     0.481536     0.254115     0.377725    Uiso  ? H
   C518       1.0     0.482321     0.229070     0.404050    Uiso  ? C
   C519       1.0     0.473792     0.223553     0.424632    Uiso  ? C
   H308       1.0     0.478409     0.210212     0.433602    Uiso  ? H
   C520       1.0     0.494975     0.212100     0.392893    Uiso  ? C
   C521       1.0     0.433515     0.228832     0.524921    Uiso  ? C
   C522       1.0     0.437171     0.234029     0.548341    Uiso  ? C
   C523       1.0     0.424381     0.248994     0.559238    Uiso  ? C
   H309       1.0     0.412449     0.258301     0.550748    Uiso  ? H
   C524       1.0     0.426440     0.251371     0.580837    Uiso  ? C
   H310       1.0     0.416019     0.262375     0.589564    Uiso  ? H
   C525       1.0     0.442592     0.240361     0.592406    Uiso  ? C
   H311       1.0     0.445957     0.244939     0.608731    Uiso  ? H
   C526       1.0     0.457011     0.227571     0.581559    Uiso  ? C
   C527       1.0     0.454261     0.223514     0.560212    Uiso  ? C
   H312       1.0     0.464960     0.214159     0.550688    Uiso  ? H
   C528       1.0     0.473988     0.216620     0.592404    Uiso  ? C
   C529       1.0     0.392354     0.192703     0.462711    Uiso  ? C
   C530       1.0     0.376814     0.181354     0.448926    Uiso  ? C
   C531       1.0     0.358124     0.191887     0.441635    Uiso  ? C
   H313       1.0     0.356438     0.208264     0.445433    Uiso  ? H
   C532       1.0     0.344449     0.181670     0.427620    Uiso  ? C
   H314       1.0     0.331536     0.192027     0.420081    Uiso  ? H
   C533       1.0     0.349223     0.160386     0.420687    Uiso  ? C
   H315       1.0     0.339850     0.153820     0.409337    Uiso  ? H
   C534       1.0     0.366532     0.149660     0.427862    Uiso  ? C
   C535       1.0     0.381570     0.161175     0.440601    Uiso  ? C
   H316       1.0     0.397364     0.153234     0.443878    Uiso  ? H
   C536       1.0     0.372728     0.129264     0.417752    Uiso  ? C
   C537       1.0     0.521532     0.224749     0.587738    Uiso  ? C
   C538       1.0     0.531874     0.239342     0.572674    Uiso  ? C
   C539       1.0     0.527225     0.261117     0.572860    Uiso  ? C
   H317       1.0     0.515274     0.268223     0.584447    Uiso  ? H
   C540       1.0     0.537696     0.274110     0.557568    Uiso  ? C
   H318       1.0     0.534903     0.291166     0.560023    Uiso  ? H
   C541       1.0     0.552329     0.265626     0.543506    Uiso  ? C
   H319       1.0     0.558794     0.276487     0.530305    Uiso  ? H
   C542       1.0     0.556307     0.243452     0.542265    Uiso  ? C
   C543       1.0     0.545070     0.230786     0.557222    Uiso  ? C
   H320       1.0     0.547088     0.213879     0.556676    Uiso  ? H
   C544       1.0     0.571921     0.233947     0.526256    Uiso  ? C
   C545       1.0     0.532956     0.178113     0.634544    Uiso  ? C
   C546       1.0     0.549849     0.165366     0.646286    Uiso  ? C
   C547       1.0     0.552796     0.168246     0.668203    Uiso  ? C
   H321       1.0     0.541857     0.178310     0.676076    Uiso  ? H
   C548       1.0     0.569132     0.156974     0.679146    Uiso  ? C
   H322       1.0     0.570971     0.158124     0.696868    Uiso  ? H
   C549       1.0     0.581681     0.142397     0.667973    Uiso  ? C
   H323       1.0     0.594612     0.133066     0.676178    Uiso  ? H
   C550       1.0     0.579047     0.139772     0.644904    Uiso  ? C
   C551       1.0     0.562274     0.150292     0.634818    Uiso  ? C
   H324       1.0     0.559381     0.147810     0.617952    Uiso  ? H
   C552       1.0     0.593851     0.126965     0.631497    Uiso  ? C
   C553       1.0     0.418915     0.117327     0.367310    Uiso  ? C
   C554       1.0     0.434081     0.127127     0.351309    Uiso  ? C
   C555       1.0     0.432248     0.123514     0.329238    Uiso  ? C
   H325       1.0     0.419291     0.114082     0.322418    Uiso  ? H
   C556       1.0     0.447513     0.132798     0.315480    Uiso  ? C
   H326       1.0     0.445437     0.128907     0.298087    Uiso  ? H
   C557       1.0     0.465244     0.144877     0.322779    Uiso  ? C
   H327       1.0     0.478061     0.150590     0.311842    Uiso  ? H
   C558       1.0     0.467628     0.146449     0.345419    Uiso  ? C
   C559       1.0     0.451844     0.139817     0.359539    Uiso  ? C
   H328       1.0     0.454645     0.139604     0.377382    Uiso  ? H
   C560       1.0     0.486430     0.157458     0.354308    Uiso  ? C
   C561       1.0     0.377161     0.856434     0.412607    Uiso  ? C
   C562       1.0     0.369733     0.836304     0.423093    Uiso  ? C
   C563       1.0     0.348871     0.827320     0.417356    Uiso  ? C
   H329       1.0     0.338827     0.835426     0.405465    Uiso  ? H
   C564       1.0     0.339750     0.811609     0.430353    Uiso  ? C
   H330       1.0     0.323678     0.805411     0.427032    Uiso  ? H
   C565       1.0     0.352574     0.801464     0.446290    Uiso  ? C
   H331       1.0     0.344958     0.788054     0.455635    Uiso  ? H
   C566       1.0     0.372640     0.808766     0.451092    Uiso  ? C
   C567       1.0     0.381817     0.825742     0.438637    Uiso  ? C
   H332       1.0     0.397156     0.832111     0.443674    Uiso  ? H
   C568       1.0     0.385786     0.798785     0.468875    Uiso  ? C
   C569       1.0     0.426362     0.766871     0.535620    Uiso  ? C
   C570       1.0     0.436658     0.758034     0.555994    Uiso  ? C
   C571       1.0     0.426968     0.740472     0.565750    Uiso  ? C
   H333       1.0     0.415754     0.729388     0.558520    Uiso  ? H
   C572       1.0     0.433818     0.734223     0.585885    Uiso  ? C
   H334       1.0     0.426962     0.720546     0.593576    Uiso  ? H
   C573       1.0     0.449185     0.745368     0.597515    Uiso  ? C
   H335       1.0     0.452561     0.739588     0.613873    Uiso  ? H
   C574       1.0     0.458690     0.763838     0.587860    Uiso  ? C
   C575       1.0     0.453023     0.769445     0.566850    Uiso  ? C
   H336       1.0     0.459199     0.784331     0.560137    Uiso  ? H
   C576       1.0     0.472872     0.777526     0.601695    Uiso  ? C
   O271       1.0     0.392841     0.136473     0.565773    Uiso  ? O
   O272       1.0     0.360243     0.138332     0.581275    Uiso  ? O
   O273       1.0     0.408471     0.133847     0.589051    Uiso  ? O
   O274       1.0     0.387038     0.124932     0.616687    Uiso  ? O
   O275       1.0     0.408644     0.881131     0.598385    Uiso  ? O
   O276       1.0     0.385192     0.893187     0.622286    Uiso  ? O
   O277       1.0     0.379662     0.884356     0.553510    Uiso  ? O
   O278       1.0     0.356864     0.878362     0.580625    Uiso  ? O
   O279       1.0     0.442944     0.209620     0.458325    Uiso  ? O
   O280       1.0     0.437435     0.243515     0.464661    Uiso  ? O
   O281       1.0     0.445235     0.215604     0.515578    Uiso  ? O
   O282       1.0     0.415929     0.235508     0.515679    Uiso  ? O
   O283       1.0     0.406246     0.186319     0.502177    Uiso  ? O
   O284       1.0     0.397398     0.220356     0.509379    Uiso  ? O
   O285       1.0     0.406235     0.182785     0.475339    Uiso  ? O
   O286       1.0     0.392467     0.213546     0.462784    Uiso  ? O
   O287       1.0     0.513460     0.206428     0.581424    Uiso  ? O
   O288       1.0     0.518840     0.229844     0.607553    Uiso  ? O
   O289       1.0     0.533535     0.180101     0.614020    Uiso  ? O
   O290       1.0     0.517847     0.186753     0.645270    Uiso  ? O
   O291       1.0     0.474545     0.172566     0.617664    Uiso  ? O
   O292       1.0     0.467392     0.202656     0.634980    Uiso  ? O
   O293       1.0     0.486273     0.203359     0.582021    Uiso  ? O
   O294       1.0     0.476592     0.219715     0.612627    Uiso  ? O
   O295       1.0     0.424573     0.117262     0.386930    Uiso  ? O
   O296       1.0     0.402981     0.105876     0.360395    Uiso  ? O
   O297       1.0     0.386327     0.116883     0.427039    Uiso  ? O
   O298       1.0     0.367500     0.125204     0.397945    Uiso  ? O
   O299       1.0     0.395891     0.864523     0.417404    Uiso  ? O
   O300       1.0     0.365126     0.866942     0.400343    Uiso  ? O
   O301       1.0     0.414090     0.864180     0.396929    Uiso  ? O
   O302       1.0     0.398724     0.875834     0.366378    Uiso  ? O
   O303       1.0     0.404853     0.804188     0.471734    Uiso  ? O
   O304       1.0     0.376730     0.785506     0.482214    Uiso  ? O
   O305       1.0     0.397520     0.814025     0.515796    Uiso  ? O
   O306       1.0     0.371868     0.790145     0.508988    Uiso  ? O
   O307       1.0     0.437131     0.777632     0.522384    Uiso  ? O
   O308       1.0     0.406760     0.763323     0.531746    Uiso  ? O
   O309       1.0     0.427880     0.790083     0.471681    Uiso  ? O
   O310       1.0     0.417470     0.757566     0.479632    Uiso  ? O
   O311       1.0     0.543552     0.157620     0.378213    Uiso  ? O
   O312       1.0     0.550149     0.183797     0.354316    Uiso  ? O
   O313       1.0     0.532188     0.196817     0.404162    Uiso  ? O
   O314       1.0     0.544671     0.206189     0.371797    Uiso  ? O
   O315       1.0     0.505218     0.198935     0.403838    Uiso  ? O
   O316       1.0     0.497409     0.211419     0.372240    Uiso  ? O
   O317       1.0     0.486857     0.162537     0.374031    Uiso  ? O
   O318       1.0     0.501528     0.164952     0.341779    Uiso  ? O
   O319       1.0     0.429672     0.892955     0.554966    Uiso  ? O
   O320       1.0     0.456712     0.174531     0.495941    Uiso  ? O
   O321       1.0     0.509432     0.151831     0.585408    Uiso  ? O
   O322       1.0     0.438009     0.103512     0.431803    Uiso  ? O
   O323       1.0     0.449611     0.823191     0.505885    Uiso  ? O
   O324       1.0     0.509150     0.143808     0.413561    Uiso  ? O
   Zn61       1.0     0.402965     0.104336     0.571593    Uiso  ? Zn
   Zn62       1.0     0.363678     0.110461     0.598339    Uiso  ? Zn
   Zn63       1.0     0.434913     0.197574     0.489037    Uiso  ? Zn
   Zn64       1.0     0.407498     0.236895     0.481906    Uiso  ? Zn
   Zn65       1.0     0.502562     0.180987     0.599547    Uiso  ? Zn
   Zn66       1.0     0.501863     0.212585     0.633526    Uiso  ? Zn
   Zn67       1.0     0.410240     0.895649     0.411866    Uiso  ? Zn
   Zn68       1.0     0.372420     0.893503     0.379295    Uiso  ? Zn
   Zn69       1.0     0.424667     0.801674     0.502229    Uiso  ? Zn
   Zn70       1.0     0.393619     0.763193     0.502749    Uiso  ? Zn
   Zn71       1.0     0.515957     0.169498     0.390243    Uiso  ? Zn
   Zn72       1.0     0.517725     0.193750     0.351291    Uiso  ? Zn
   H337       1.0     0.464973     0.176866     0.509444    Uiso  ? H
   H338       1.0     0.458465     0.161125     0.488135    Uiso  ? H
   H339       1.0     0.538470     0.816536     0.510550    Uiso  ? H
   H340       1.0     0.556375     0.831192     0.524108    Uiso  ? H
   H341       1.0     0.483201     0.849928     0.579612    Uiso  ? H
   H342       1.0     0.509538     0.845902     0.574778    Uiso  ? H
   H343       1.0     0.560702     0.108815     0.563281    Uiso  ? H
   H344       1.0     0.576818     0.890668     0.548097    Uiso  ? H
   H345       1.0     0.496121     0.136179     0.408851    Uiso  ? H
   H346       1.0     0.513068     0.142262     0.428451    Uiso  ? H
   H347       1.0     0.581484     0.871796     0.456172    Uiso  ? H
   H348       1.0     0.579998     0.103736     0.459786    Uiso  ? H
   H349       1.0     0.557424     0.166681     0.511714    Uiso  ? H
   H350       1.0     0.558363     0.169151     0.485640    Uiso  ? H
   H351       1.0     0.445890     0.116485     0.430379    Uiso  ? H
   H352       1.0     0.440106     0.889822     0.444155    Uiso  ? H
   H353       1.0     0.502024     0.850859     0.432649    Uiso  ? H
   H354       1.0     0.528246     0.846559     0.426851    Uiso  ? H
   H355       1.0     0.462072     0.822132     0.515923    Uiso  ? H
   H356       1.0     0.443934     0.837372     0.502628    Uiso  ? H
   H357       1.0     0.522823     0.148236     0.577093    Uiso  ? H
   H358       1.0     0.498853     0.141035     0.590255    Uiso  ? H
   H359       1.0     0.431529     0.877553     0.551736    Uiso  ? H
   H360       1.0     0.444233     0.105844     0.555881    Uiso  ? H
   C577       1.0     0.395944     0.401859     0.172743    Uiso  ? C
   C578       1.0     0.405861     0.394502     0.192830    Uiso  ? C
   C579       1.0     0.392958     0.388794     0.210312    Uiso  ? C
   H361       1.0     0.376665     0.388073     0.208869    Uiso  ? H
   C580       1.0     0.401748     0.383303     0.229969    Uiso  ? C
   H362       1.0     0.393075     0.375740     0.242622    Uiso  ? H
   C581       1.0     0.423625     0.383245     0.233090    Uiso  ? C
   H363       1.0     0.428574     0.378708     0.249946    Uiso  ? H
   C582       1.0     0.436900     0.389934     0.215981    Uiso  ? C
   C583       1.0     0.428187     0.395169     0.195936    Uiso  ? C
   H364       1.0     0.439058     0.401651     0.183235    Uiso  ? H
   C584       1.0     0.459468     0.394440     0.220034    Uiso  ? C
   C585       1.0     0.365941     0.447161     0.165090    Uiso  ? C
   C586       1.0     0.361594     0.463679     0.181514    Uiso  ? C
   C587       1.0     0.343519     0.461947     0.195365    Uiso  ? C
   H365       1.0     0.332136     0.449879     0.191535    Uiso  ? H
   C588       1.0     0.341684     0.474518     0.213831    Uiso  ? C
   H366       1.0     0.327569     0.473280     0.224301    Uiso  ? H
   C589       1.0     0.356852     0.490291     0.218100    Uiso  ? C
   H367       1.0     0.354506     0.499589     0.232145    Uiso  ? H
   C590       1.0     0.373385     0.493536     0.203292    Uiso  ? C
   C591       1.0     0.374605     0.481239     0.184013    Uiso  ? C
   H368       1.0     0.388823     0.483363     0.173712    Uiso  ? H
   C592       1.0     0.390215     0.509548     0.207974    Uiso  ? C
   C593       1.0     0.360886     0.433730     0.105035    Uiso  ? C
   C594       1.0     0.349221     0.441140     0.886278    Uiso  ? C
   C595       1.0     0.327499     0.436671     0.883536    Uiso  ? C
   H369       1.0     0.318514     0.430126     0.896409    Uiso  ? H
   C596       1.0     0.318177     0.439671     0.863103    Uiso  ? C
   H370       1.0     0.302983     0.432762     0.861249    Uiso  ? H
   C597       1.0     0.329791     0.448645     0.846108    Uiso  ? C
   H371       1.0     0.322628     0.450529     0.831006    Uiso  ? H
   C598       1.0     0.350907     0.456478     0.850642    Uiso  ? C
   C599       1.0     0.360167     0.451930     0.870495    Uiso  ? C
   H372       1.0     0.376398     0.457568     0.875249    Uiso  ? H
   C600       1.0     0.364884     0.464493     0.833168    Uiso  ? C
   C601       1.0     0.392948     0.389321     0.110482    Uiso  ? C
   C602       1.0     0.399496     0.370555     0.896202    Uiso  ? C
   C603       1.0     0.390221     0.350380     0.896939    Uiso  ? C
   H373       1.0     0.377006     0.348897     0.107467    Uiso  ? H
   C604       1.0     0.398177     0.334466     0.883175    Uiso  ? C
   H374       1.0     0.389327     0.319259     0.883291    Uiso  ? H
   C605       1.0     0.414378     0.338449     0.868097    Uiso  ? C
   H375       1.0     0.418300     0.326417     0.856323    Uiso  ? H
   C606       1.0     0.424289     0.358777     0.868015    Uiso  ? C
   C607       1.0     0.417075     0.374281     0.883085    Uiso  ? C
   H376       1.0     0.425948     0.389308     0.883896    Uiso  ? H
   C608       1.0     0.443488     0.362315     0.855656    Uiso  ? C
   C609       1.0     0.529564     0.429776     0.238733    Uiso  ? C
   C610       1.0     0.546997     0.444426     0.246564    Uiso  ? C
   C611       1.0     0.550625     0.444394     0.268162    Uiso  ? C
   H377       1.0     0.542030     0.433960     0.278907    Uiso  ? H
   C612       1.0     0.564285     0.459647     0.277299    Uiso  ? C
   H378       1.0     0.567533     0.458671     0.294993    Uiso  ? H
   C613       1.0     0.577538     0.471926     0.262797    Uiso  ? C
   H379       1.0     0.588711     0.482798     0.270523    Uiso  ? H
   C614       1.0     0.574681     0.471794     0.240746    Uiso  ? C
   C615       1.0     0.559121     0.457425     0.232726    Uiso  ? C
   H380       1.0     0.556522     0.457114     0.214822    Uiso  ? H
   C616       1.0     0.585364     0.488184     0.226857    Uiso  ? C
   C617       1.0     0.481600     0.443403     0.246359    Uiso  ? C
   C618       1.0     0.472911     0.461010     0.259084    Uiso  ? C
   C619       1.0     0.469163     0.459920     0.281140    Uiso  ? C
   H381       1.0     0.474773     0.446746     0.290428    Uiso  ? H
   C620       1.0     0.457839     0.477115     0.291075    Uiso  ? C
   H382       1.0     0.454041     0.477067     0.308018    Uiso  ? H
   C621       1.0     0.449914     0.494256     0.279276    Uiso  ? C
   H383       1.0     0.442111     0.507089     0.287370    Uiso  ? H
   C622       1.0     0.454362     0.496117     0.257194    Uiso  ? C
   C623       1.0     0.466487     0.479753     0.247878    Uiso  ? C
   H384       1.0     0.469570     0.481071     0.231107    Uiso  ? H
   C624       1.0     0.444170     0.512805     0.243711    Uiso  ? C
   C625       1.0     0.526823     0.387719     0.206756    Uiso  ? C
   C626       1.0     0.545335     0.375949     0.197894    Uiso  ? C
   C627       1.0     0.549925     0.355341     0.204775    Uiso  ? C
   H385       1.0     0.541104     0.350050     0.218565    Uiso  ? H
   C628       1.0     0.563428     0.341664     0.193831    Uiso  ? C
   H386       1.0     0.565667     0.325958     0.200707    Uiso  ? H
   C629       1.0     0.573259     0.348497     0.175503    Uiso  ? C
   H387       1.0     0.585150     0.337680     0.167805    Uiso  ? H
   C630       1.0     0.570766     0.369444     0.167827    Uiso  ? C
   C631       1.0     0.557005     0.383087     0.179492    Uiso  ? C
   H388       1.0     0.552766     0.398525     0.172543    Uiso  ? H
   C632       1.0     0.583930     0.376411     0.149673    Uiso  ? C
   C633       1.0     0.438335     0.576293     0.215701    Uiso  ? C
   C634       1.0     0.446471     0.598683     0.212467    Uiso  ? C
   C635       1.0     0.436297     0.616151     0.221349    Uiso  ? C
   H389       1.0     0.421254     0.614076     0.229832    Uiso  ? H
   C636       1.0     0.444105     0.637798     0.218095    Uiso  ? C
   H390       1.0     0.434695     0.650525     0.226539    Uiso  ? H
   C637       1.0     0.461849     0.641174     0.205020    Uiso  ? C
   H391       1.0     0.467464     0.657270     0.203105    Uiso  ? H
   C638       1.0     0.472131     0.624133     0.195245    Uiso  ? C
   C639       1.0     0.464697     0.602934     0.198620    Uiso  ? C
   H392       1.0     0.470628     0.589658     0.189651    Uiso  ? H
   C640       1.0     0.489877     0.628217     0.181446    Uiso  ? C
   C641       1.0     0.395899     0.558422     0.195138    Uiso  ? C
   C642       1.0     0.380535     0.571153     0.181564    Uiso  ? C
   C643       1.0     0.360673     0.577948     0.189685    Uiso  ? C
   H393       1.0     0.356466     0.576543     0.206182    Uiso  ? H
   C644       1.0     0.347577     0.591031     0.176442    Uiso  ? C
   H394       1.0     0.333852     0.598661     0.183456    Uiso  ? H
   C645       1.0     0.353453     0.597693     0.155727    Uiso  ? C
   H395       1.0     0.343953     0.609594     0.147972    Uiso  ? H
   C646       1.0     0.371786     0.587372     0.146497    Uiso  ? C
   C647       1.0     0.385383     0.574790     0.159672    Uiso  ? C
   H396       1.0     0.400771     0.568310     0.154045    Uiso  ? H
   C648       1.0     0.379228     0.593776     0.125049    Uiso  ? C
   C649       1.0     0.621336     0.415923     0.143357    Uiso  ? C
   C650       1.0     0.633599     0.430096     0.158142    Uiso  ? C
   C651       1.0     0.655820     0.426611     0.162369    Uiso  ? C
   H397       1.0     0.665564     0.413475     0.156375    Uiso  ? H
   C652       1.0     0.666949     0.439705     0.176743    Uiso  ? C
   H398       1.0     0.684710     0.438612     0.179352    Uiso  ? H
   C653       1.0     0.656372     0.458106     0.186059    Uiso  ? C
   H399       1.0     0.667259     0.469325     0.194575    Uiso  ? H
   C654       1.0     0.635268     0.462111     0.182294    Uiso  ? C
   C655       1.0     0.623638     0.448229     0.168424    Uiso  ? C
   H400       1.0     0.606908     0.452540     0.165025    Uiso  ? H
   C656       1.0     0.624818     0.482326     0.190116    Uiso  ? C
   C657       1.0     0.573352     0.363897     0.101827    Uiso  ? C
   C658       1.0     0.555824     0.349159     0.894433    Uiso  ? C
   C659       1.0     0.554260     0.328096     0.100167    Uiso  ? C
   H401       1.0     0.564807     0.323048     0.111792    Uiso  ? H
   C660       1.0     0.540166     0.312670     0.891945    Uiso  ? C
   H402       1.0     0.540887     0.296076     0.897101    Uiso  ? H
   C661       1.0     0.525494     0.319911     0.876096    Uiso  ? C
   H403       1.0     0.513922     0.308962     0.871357    Uiso  ? H
   C662       1.0     0.525586     0.341611     0.870414    Uiso  ? C
   C663       1.0     0.542211     0.355281     0.877716    Uiso  ? C
   H404       1.0     0.542868     0.370513     0.871499    Uiso  ? H
   C664       1.0     0.509357     0.348807     0.854330    Uiso  ? C
   C665       1.0     0.449859     0.380612     0.807786    Uiso  ? C
   C666       1.0     0.430067     0.388643     0.797326    Uiso  ? C
   C667       1.0     0.415224     0.372913     0.790005    Uiso  ? C
   H405       1.0     0.418550     0.355283     0.790112    Uiso  ? H
   C668       1.0     0.395030     0.379416     0.782715    Uiso  ? C
   H406       1.0     0.383914     0.367093     0.775387    Uiso  ? H
   C669       1.0     0.389622     0.401596     0.783725    Uiso  ? C
   H407       1.0     0.373432     0.406354     0.779527    Uiso  ? H
   C670       1.0     0.404057     0.416074     0.791732    Uiso  ? C
   C671       1.0     0.425529     0.410390     0.796032    Uiso  ? C
   H408       1.0     0.437597     0.421713     0.801179    Uiso  ? H
   C672       1.0     0.397438     0.438677     0.793719    Uiso  ? C
   O325       1.0     0.407241     0.407410     0.155949    Uiso  ? O
   O326       1.0     0.375629     0.404831     0.172438    Uiso  ? O
   O327       1.0     0.376413     0.451558     0.147729    Uiso  ? O
   O328       1.0     0.360792     0.427202     0.168446    Uiso  ? O
   O329       1.0     0.380965     0.429097     0.103534    Uiso  ? O
   O330       1.0     0.350934     0.427362     0.121230    Uiso  ? O
   O331       1.0     0.397740     0.408207     0.105815    Uiso  ? O
   O332       1.0     0.380963     0.384970     0.126947    Uiso  ? O
   O333       1.0     0.526876     0.427068     0.218592    Uiso  ? O
   O334       1.0     0.516927     0.420963     0.252250    Uiso  ? O
   O335       1.0     0.478574     0.442400     0.226408    Uiso  ? O
   O336       1.0     0.491607     0.428980     0.256284    Uiso  ? O
   O337       1.0     0.473946     0.393265     0.205654    Uiso  ? O
   O338       1.0     0.464893     0.400647     0.237851    Uiso  ? O
   O339       1.0     0.524422     0.407452     0.202131    Uiso  ? O
   O340       1.0     0.513472     0.378962     0.219402    Uiso  ? O
   O341       1.0     0.448285     0.560327     0.206808    Uiso  ? O
   O342       1.0     0.420382     0.572277     0.224771    Uiso  ? O
   O343       1.0     0.406948     0.542985     0.186270    Uiso  ? O
   O344       1.0     0.398072     0.562855     0.215089    Uiso  ? O
   O345       1.0     0.401915     0.517234     0.193340    Uiso  ? O
   O346       1.0     0.392950     0.516410     0.227062    Uiso  ? O
   O347       1.0     0.437032     0.507556     0.225706    Uiso  ? O
   O348       1.0     0.439738     0.531455     0.250924    Uiso  ? O
   O349       1.0     0.601405     0.417549     0.142716    Uiso  ? O
   O350       1.0     0.630781     0.400862     0.133027    Uiso  ? O
   O351       1.0     0.583730     0.395962     0.143637    Uiso  ? O
   O352       1.0     0.593901     0.363006     0.138493    Uiso  ? O
   O353       1.0     0.570022     0.384360     0.101419    Uiso  ? O
   O354       1.0     0.590841     0.357339     0.110144    Uiso  ? O
   O355       1.0     0.615676     0.406365     0.888418    Uiso  ? O
   O356       1.0     0.619652     0.371900     0.887684    Uiso  ? O
   O357       1.0     0.509830     0.368077     0.847030    Uiso  ? O
   O358       1.0     0.493302     0.338240     0.849903    Uiso  ? O
   O359       1.0     0.456677     0.376626     0.860859    Uiso  ? O
   O360       1.0     0.446606     0.351008     0.838861    Uiso  ? O
   O361       1.0     0.465080     0.393385     0.812878    Uiso  ? O
   O362       1.0     0.449765     0.361140     0.814684    Uiso  ? O
   O363       1.0     0.488259     0.391940     0.808025    Uiso  ? O
   O364       1.0     0.499240     0.358681     0.803362    Uiso  ? O
   O365       1.0     0.613578     0.529943     0.172426    Uiso  ? O
   O366       1.0     0.641328     0.524511     0.192927    Uiso  ? O
   O367       1.0     0.576567     0.537983     0.208584    Uiso  ? O
   O368       1.0     0.608014     0.552116     0.214546    Uiso  ? O
   O369       1.0     0.583908     0.487249     0.206433    Uiso  ? O
   O370       1.0     0.598644     0.500989     0.235035    Uiso  ? O
   O371       1.0     0.604385     0.485702     0.187477    Uiso  ? O
   O372       1.0     0.635995     0.495992     0.200560    Uiso  ? O
   O373       1.0     0.425313     0.450316     0.130020    Uiso  ? O
   O374       1.0     0.488795     0.434639     0.174726    Uiso  ? O
   O375       1.0     0.456046     0.516500     0.181927    Uiso  ? O
   O376       1.0     0.576487     0.435268     0.898652    Uiso  ? O
   O377       1.0     0.495216     0.414705     0.857324    Uiso  ? O
   O378       1.0     0.569859     0.513033     0.160871    Uiso  ? O
   Zn73       1.0     0.398066     0.430157     0.131892    Uiso  ? Zn
   Zn74       1.0     0.359251     0.404237     0.143071    Uiso  ? Zn
   Zn75       1.0     0.493039     0.421145     0.205232    Uiso  ? Zn
   Zn76       1.0     0.496121     0.396498     0.244821    Uiso  ? Zn
   Zn77       1.0     0.433641     0.529493     0.201358    Uiso  ? Zn
   Zn78       1.0     0.409864     0.542400     0.241129    Uiso  ? Zn
   Zn79       1.0     0.590379     0.409043     0.111513    Uiso  ? Zn
   Zn80       1.0     0.619978     0.370871     0.119534    Uiso  ? Zn
   Zn81       1.0     0.482674     0.386678     0.841469    Uiso  ? Zn
   Zn82       1.0     0.476850     0.343256     0.822750    Uiso  ? Zn
   Zn83       1.0     0.588005     0.515524     0.187035    Uiso  ? Zn
   Zn84       1.0     0.622503     0.521908     0.221181    Uiso  ? Zn
   C673       1.0     0.606934     0.599391     0.836340    Uiso  ? C
   C674       1.0     0.594676     0.606404     0.817790    Uiso  ? C
   C675       1.0     0.604592     0.621155     0.803458    Uiso  ? C
   H409       1.0     0.620301     0.627399     0.807707    Uiso  ? H
   C676       1.0     0.594061     0.625874     0.784852    Uiso  ? C
   H410       1.0     0.601815     0.637044     0.774084    Uiso  ? H
   C677       1.0     0.574554     0.615758     0.779529    Uiso  ? C
   H411       1.0     0.566709     0.622492     0.765184    Uiso  ? H
   C678       1.0     0.563195     0.604043     0.794312    Uiso  ? C
   C679       1.0     0.572727     0.598983     0.813814    Uiso  ? C
   H412       1.0     0.565443     0.587936     0.825683    Uiso  ? H
   C680       1.0     0.541451     0.595891     0.788725    Uiso  ? C
   C681       1.0     0.634884     0.552819     0.834783    Uiso  ? C
   C682       1.0     0.635880     0.540337     0.814526    Uiso  ? C
   C683       1.0     0.653274     0.543185     0.799540    Uiso  ? C
   H413       1.0     0.662972     0.557887     0.801054    Uiso  ? H
   C684       1.0     0.654576     0.530108     0.781179    Uiso  ? C
   H414       1.0     0.666694     0.534763     0.769587    Uiso  ? H
   C685       1.0     0.640861     0.512871     0.778320    Uiso  ? C
   H415       1.0     0.641461     0.503722     0.763536    Uiso  ? H
   C686       1.0     0.623272     0.510087     0.791697    Uiso  ? C
   C687       1.0     0.620505     0.523774     0.809852    Uiso  ? C
   H416       1.0     0.605470     0.522104     0.819553    Uiso  ? H
   C688       1.0     0.609696     0.491218     0.787693    Uiso  ? C
   C689       1.0     0.640745     0.565679     0.104602    Uiso  ? C
   C690       1.0     0.651740     0.559290     0.124792    Uiso  ? C
   C691       1.0     0.674398     0.560754     0.128087    Uiso  ? C
   H417       1.0     0.683840     0.567658     0.114635    Uiso  ? H
   C692       1.0     0.684017     0.553282     0.147314    Uiso  ? C
   H418       1.0     0.701599     0.552331     0.150057    Uiso  ? H
   C693       1.0     0.670690     0.543555     0.163118    Uiso  ? C
   H419       1.0     0.678472     0.536171     0.176530    Uiso  ? H
   C694       1.0     0.648613     0.542122     0.160187    Uiso  ? C
   C695       1.0     0.639487     0.550575     0.141011    Uiso  ? C
   H420       1.0     0.622513     0.549235     0.139136    Uiso  ? H
   C696       1.0     0.633573     0.531816     0.176248    Uiso  ? C
   C697       1.0     0.611112     0.614912     0.883533    Uiso  ? C
   C698       1.0     0.600689     0.634211     0.892492    Uiso  ? C
   C699       1.0     0.610924     0.653920     0.891804    Uiso  ? C
   H421       1.0     0.627224     0.656044     0.883888    Uiso  ? H
   C700       1.0     0.602746     0.672567     0.102164    Uiso  ? C
   H422       1.0     0.611228     0.687060     0.103538    Uiso  ? H
   C701       1.0     0.583264     0.670459     0.113436    Uiso  ? C
   H423       1.0     0.578198     0.683017     0.123985    Uiso  ? H
   C702       1.0     0.572318     0.650103     0.113603    Uiso  ? C
   C703       1.0     0.580242     0.633117     0.101817    Uiso  ? C
   H424       1.0     0.571965     0.616887     0.102155    Uiso  ? H
   C704       1.0     0.553426     0.647781     0.126907    Uiso  ? C
   C705       1.0     0.471770     0.558918     0.767491    Uiso  ? C
   C706       1.0     0.455232     0.544063     0.758890    Uiso  ? C
   C707       1.0     0.453627     0.541351     0.736347    Uiso  ? C
   H425       1.0     0.462899     0.552420     0.726937    Uiso  ? H
   C708       1.0     0.436606     0.529747     0.726926    Uiso  ? C
   H426       1.0     0.433051     0.531413     0.709665    Uiso  ? H
   C709       1.0     0.422828     0.517284     0.740078    Uiso  ? C
   H427       1.0     0.409097     0.508575     0.732495    Uiso  ? H
   C710       1.0     0.425575     0.518881     0.763112    Uiso  ? C
   C711       1.0     0.440987     0.532357     0.772103    Uiso  ? C
   H428       1.0     0.442706     0.533116     0.789334    Uiso  ? H
   C712       1.0     0.412300     0.504636     0.778057    Uiso  ? C
   C713       1.0     0.521237     0.544929     0.764651    Uiso  ? C
   C714       1.0     0.528991     0.525288     0.752652    Uiso  ? C
   C715       1.0     0.524035     0.519913     0.731336    Uiso  ? C
   H429       1.0     0.514246     0.529261     0.720723    Uiso  ? H
   C716       1.0     0.532395     0.501151     0.722322    Uiso  ? C
   H430       1.0     0.530090     0.498202     0.704855    Uiso  ? H
   C717       1.0     0.546400     0.487991     0.733756    Uiso  ? C
   H431       1.0     0.551223     0.473157     0.725197    Uiso  ? H
   C718       1.0     0.550843     0.491945     0.755301    Uiso  ? C
   C719       1.0     0.541818     0.510686     0.764274    Uiso  ? C
   H432       1.0     0.543134     0.513969     0.780977    Uiso  ? H
   C720       1.0     0.564189     0.476032     0.767712    Uiso  ? C
   C721       1.0     0.474293     0.600881     0.801620    Uiso  ? C
   C722       1.0     0.458305     0.615297     0.811902    Uiso  ? C
   C723       1.0     0.455022     0.635851     0.804492    Uiso  ? C
   H433       1.0     0.464511     0.639551     0.789825    Uiso  ? H
   C724       1.0     0.438984     0.648592     0.813220    Uiso  ? C
   H434       1.0     0.437918     0.664832     0.807629    Uiso  ? H
   C725       1.0     0.426177     0.641087     0.828754    Uiso  ? C
   H435       1.0     0.412301     0.652026     0.832955    Uiso  ? H
   C726       1.0     0.430250     0.620964     0.838975    Uiso  ? C
   C727       1.0     0.446329     0.608140     0.830163    Uiso  ? C
   H436       1.0     0.451628     0.593686     0.838085    Uiso  ? H
   C728       1.0     0.415822     0.613308     0.855101    Uiso  ? C
   C729       1.0     0.558246     0.427335     0.777460    Uiso  ? C
   C730       1.0     0.540431     0.412041     0.770075    Uiso  ? C
   C731       1.0     0.540258     0.402880     0.749151    Uiso  ? C
   H437       1.0     0.549533     0.410391     0.735421    Uiso  ? H
   C732       1.0     0.528432     0.384227     0.745285    Uiso  ? C
   H438       1.0     0.530013     0.378183     0.729475    Uiso  ? H
   C733       1.0     0.515413     0.377122     0.762006    Uiso  ? C
   H439       1.0     0.503660     0.364910     0.757973    Uiso  ? H
   C734       1.0     0.513933     0.387582     0.782436    Uiso  ? C
   C735       1.0     0.527762     0.404078     0.786812    Uiso  ? C
   H440       1.0     0.529222     0.410430     0.802335    Uiso  ? H
   C736       1.0     0.500142     0.378835     0.798293    Uiso  ? C
   C737       1.0     0.612348     0.424909     0.808049    Uiso  ? C
   C738       1.0     0.623564     0.408892     0.821464    Uiso  ? C
   C739       1.0     0.638525     0.394053     0.812388    Uiso  ? C
   H441       1.0     0.640548     0.392969     0.795469    Uiso  ? H
   C740       1.0     0.646792     0.378331     0.825365    Uiso  ? C
   H442       1.0     0.657053     0.366386     0.817882    Uiso  ? H
   C741       1.0     0.641916     0.377302     0.846986    Uiso  ? C
   H443       1.0     0.649024     0.364945     0.856218    Uiso  ? H
   C742       1.0     0.628447     0.392099     0.856387    Uiso  ? C
   C743       1.0     0.620253     0.409089     0.843829    Uiso  ? C
   H444       1.0     0.608610     0.421713     0.849735    Uiso  ? H
   C744       1.0     0.621420     0.390024     0.879132    Uiso  ? C
   C745       1.0     0.360872     0.573782     0.861304    Uiso  ? C
   C746       1.0     0.349229     0.559552     0.846227    Uiso  ? C
   C747       1.0     0.328606     0.563444     0.838239    Uiso  ? C
   H445       1.0     0.318479     0.574503     0.845599    Uiso  ? H
   C748       1.0     0.319378     0.549349     0.823047    Uiso  ? C
   H446       1.0     0.303943     0.552230     0.818040    Uiso  ? H
   C749       1.0     0.330642     0.531030     0.815549    Uiso  ? C
   H447       1.0     0.322755     0.519643     0.805943    Uiso  ? H
   C750       1.0     0.351847     0.529280     0.820437    Uiso  ? C
   C751       1.0     0.360662     0.542761     0.836382    Uiso  ? C
   H448       1.0     0.377833     0.540261     0.840851    Uiso  ? H
   C752       1.0     0.364004     0.510484     0.812228    Uiso  ? C
   C753       1.0     0.415290     0.624589     0.102928    Uiso  ? C
   C754       1.0     0.430277     0.640296     0.113105    Uiso  ? C
   C755       1.0     0.423543     0.662004     0.113737    Uiso  ? C
   H449       1.0     0.407811     0.667048     0.109227    Uiso  ? H
   C756       1.0     0.436812     0.677578     0.121592    Uiso  ? C
   H450       1.0     0.430937     0.693552     0.123559    Uiso  ? H
   C757       1.0     0.457375     0.672305     0.127510    Uiso  ? C
   H451       1.0     0.468325     0.684699     0.133446    Uiso  ? H
   C758       1.0     0.463498     0.650620     0.128453    Uiso  ? C
   C759       1.0     0.449598     0.634045     0.120234    Uiso  ? C
   H452       1.0     0.454523     0.616814     0.120230    Uiso  ? H
   C760       1.0     0.484485     0.643826     0.137567    Uiso  ? C
   C761       1.0     0.541186     0.613829     0.185123    Uiso  ? C
   C762       1.0     0.554533     0.603142     0.201672    Uiso  ? C
   C763       1.0     0.562632     0.616315     0.218477    Uiso  ? C
   H453       1.0     0.558696     0.633601     0.219066    Uiso  ? H
   C764       1.0     0.575309     0.608310     0.234611    Uiso  ? C
   H454       1.0     0.580677     0.618306     0.247261    Uiso  ? H
   C765       1.0     0.583791     0.587724     0.232559    Uiso  ? C
   H455       1.0     0.595655     0.581202     0.244255    Uiso  ? H
   C766       1.0     0.577591     0.574336     0.216077    Uiso  ? C
   C767       1.0     0.561640     0.581409     0.201331    Uiso  ? C
   H456       1.0     0.555482     0.571134     0.189552    Uiso  ? H
   C768       1.0     0.587464     0.553884     0.214019    Uiso  ? C
   O379       1.0     0.597013     0.590883     0.852455    Uiso  ? O
   O380       1.0     0.627332     0.595508     0.834489    Uiso  ? O
   O381       1.0     0.621352     0.546824     0.848696    Uiso  ? O
   O382       1.0     0.641858     0.572084     0.835014    Uiso  ? O
   O383       1.0     0.620773     0.563806     0.102115    Uiso  ? O
   O384       1.0     0.652260     0.571720     0.889837    Uiso  ? O
   O385       1.0     0.600399     0.597396     0.881204    Uiso  ? O
   O386       1.0     0.629675     0.616816     0.875815    Uiso  ? O
   O387       1.0     0.473892     0.560409     0.786709    Uiso  ? O
   O388       1.0     0.485610     0.567143     0.754904    Uiso  ? O
   O389       1.0     0.517926     0.543584     0.784789    Uiso  ? O
   O390       1.0     0.512362     0.560621     0.754837    Uiso  ? O
   O391       1.0     0.527212     0.592089     0.803924    Uiso  ? O
   O392       1.0     0.536904     0.592469     0.769016    Uiso  ? O
   O393       1.0     0.473879     0.580817     0.806259    Uiso  ? O
   O394       1.0     0.488443     0.608917     0.788719    Uiso  ? O
   O395       1.0     0.559075     0.434632     0.796487    Uiso  ? O
   O396       1.0     0.570875     0.433668     0.763423    Uiso  ? O
   O397       1.0     0.608653     0.442535     0.816637    Uiso  ? O
   O398       1.0     0.607388     0.420814     0.788404    Uiso  ? O
   O399       1.0     0.593087     0.488391     0.799543    Uiso  ? O
   O400       1.0     0.616686     0.475253     0.776055    Uiso  ? O
   O401       1.0     0.570456     0.479867     0.787117    Uiso  ? O
   O402       1.0     0.572541     0.460613     0.756328    Uiso  ? O
   O403       1.0     0.374056     0.566055     0.875048    Uiso  ? O
   O404       1.0     0.359697     0.593872     0.857705    Uiso  ? O
   O405       1.0     0.418351     0.594962     0.862638    Uiso  ? O
   O406       1.0     0.400734     0.625279     0.862618    Uiso  ? O
   O407       1.0     0.416327     0.604900     0.107911    Uiso  ? O
   O408       1.0     0.401589     0.629852     0.889556    Uiso  ? O
   O409       1.0     0.398470     0.589241     0.119110    Uiso  ? O
   O410       1.0     0.365890     0.600051     0.111087    Uiso  ? O
   O411       1.0     0.492705     0.625634     0.132473    Uiso  ? O
   O412       1.0     0.495177     0.656886     0.149459    Uiso  ? O
   O413       1.0     0.547478     0.628942     0.131242    Uiso  ? O
   O414       1.0     0.544104     0.664593     0.136261    Uiso  ? O
   O415       1.0     0.528029     0.602234     0.174595    Uiso  ? O
   O416       1.0     0.543672     0.634109     0.180979    Uiso  ? O
   O417       1.0     0.500525     0.612623     0.173452    Uiso  ? O
   O418       1.0     0.495693     0.647356     0.176535    Uiso  ? O
   O419       1.0     0.382224     0.474674     0.837170    Uiso  ? O
   O420       1.0     0.359891     0.461323     0.813748    Uiso  ? O
   O421       1.0     0.410397     0.453589     0.797342    Uiso  ? O
   O422       1.0     0.377729     0.443023     0.795670    Uiso  ? O
   O423       1.0     0.410418     0.509065     0.797543    Uiso  ? O
   O424       1.0     0.399788     0.490383     0.770236    Uiso  ? O
   O425       1.0     0.384771     0.508604     0.815072    Uiso  ? O
   O426       1.0     0.354445     0.496218     0.801678    Uiso  ? O
   O427       1.0     0.579493     0.544412     0.875523    Uiso  ? O
   O428       1.0     0.508520     0.558762     0.836472    Uiso  ? O
   O429       1.0     0.570814     0.459104     0.837774    Uiso  ? O
   O430       1.0     0.416430     0.550530     0.890307    Uiso  ? O
   O431       1.0     0.529034     0.586567     0.127363    Uiso  ? O
   O432       1.0     0.432849     0.482483     0.833992    Uiso  ? O
   Zn85       1.0     0.606616     0.564716     0.872958    Uiso  ? Zn
   Zn86       1.0     0.647296     0.591928     0.862352    Uiso  ? Zn
   Zn87       1.0     0.503966     0.566660     0.804075    Uiso  ? Zn
   Zn88       1.0     0.505162     0.593620     0.763436    Uiso  ? Zn
   Zn89       1.0     0.580253     0.457984     0.807797    Uiso  ? Zn
   Zn90       1.0     0.601689     0.446423     0.767517    Uiso  ? Zn
   Zn91       1.0     0.403081     0.579772     0.887673    Uiso  ? Zn
   Zn92       1.0     0.371703     0.615196     0.880926    Uiso  ? Zn
   Zn93       1.0     0.520754     0.615513     0.145510    Uiso  ? Zn
   Zn94       1.0     0.526673     0.656710     0.164897    Uiso  ? Zn
   Zn95       1.0     0.405132     0.481684     0.814894    Uiso  ? Zn
   Zn96       1.0     0.372061     0.474266     0.783452    Uiso  ? Zn
   H457       1.0     0.503340     0.570313     0.844924    Uiso  ? H
   H458       1.0     0.508336     0.544636     0.842106    Uiso  ? H
   H459       1.0     0.491025     0.449598     0.173538    Uiso  ? H
   H460       1.0     0.477598     0.427848     0.166726    Uiso  ? H
   H461       1.0     0.554286     0.511261     0.164002    Uiso  ? H
   H462       1.0     0.575768     0.509753     0.146947    Uiso  ? H
   H463       1.0     0.575005     0.447303     0.108951    Uiso  ? H
   H464       1.0     0.578127     0.439198     0.884041    Uiso  ? H
   H465       1.0     0.435656     0.492216     0.844969    Uiso  ? H
   H466       1.0     0.445190     0.472961     0.831374    Uiso  ? H
   H467       1.0     0.438213     0.447460     0.137891    Uiso  ? H
   H468       1.0     0.426262     0.460615     0.117822    Uiso  ? H
   H469       1.0     0.490893     0.428918     0.851643    Uiso  ? H
   H470       1.0     0.505327     0.411247     0.868712    Uiso  ? H
   H471       1.0     0.423097     0.547832     0.103230    Uiso  ? H
   H472       1.0     0.413671     0.538845     0.881013    Uiso  ? H
   H473       1.0     0.468769     0.524759     0.181441    Uiso  ? H
   H474       1.0     0.451148     0.507928     0.169334    Uiso  ? H
   H475       1.0     0.532065     0.571903     0.131957    Uiso  ? H
   H476       1.0     0.528758     0.587931     0.112244    Uiso  ? H
   H477       1.0     0.557121     0.463878     0.843646    Uiso  ? H
   H478       1.0     0.578749     0.450641     0.848014    Uiso  ? H
   H479       1.0     0.580604     0.535799     0.888596    Uiso  ? H
   H480       1.0     0.566651     0.544506     0.866327    Uiso  ? H
   C769       1.0     0.512540     0.221846     0.290577    Uiso  ? C
   H481       1.0     0.514879     0.222685     0.273778    Uiso  ? H
   C770       1.0     0.500412     0.227376     0.322599    Uiso  ? C
   N1         1.0     0.500252     0.234795     0.302467    Uiso  ? N
   C771       1.0     0.486222     0.251855     0.293777    Uiso  ? C
   H482       1.0     0.484371     0.250115     0.275284    Uiso  ? H
   H483       1.0     0.470135     0.249657     0.300726    Uiso  ? H
   C772       1.0     0.495413     0.273858     0.299283    Uiso  ? C
   C773       1.0     0.508824     0.284831     0.285346    Uiso  ? C
   C774       1.0     0.487257     0.285674     0.318038    Uiso  ? C
   C775       1.0     0.516429     0.305257     0.289834    Uiso  ? C
   H484       1.0     0.514421     0.277706     0.270266    Uiso  ? H
   C776       1.0     0.493198     0.306838     0.321390    Uiso  ? C
   H485       1.0     0.474328     0.278401     0.326882    Uiso  ? H
   C777       1.0     0.507732     0.317095     0.307022    Uiso  ? C
   H486       1.0     0.528414     0.312678     0.279384    Uiso  ? H
   H487       1.0     0.486424     0.315664     0.334455    Uiso  ? H
   C778       1.0     0.513619     0.340270     0.309932    Uiso  ? C
   H488       1.0     0.510573     0.345008     0.326508    Uiso  ? H
   H489       1.0     0.530768     0.341930     0.306432    Uiso  ? H
   N2         1.0     0.500146     0.352344     0.295685    Uiso  ? N
   C779       1.0     0.507474     0.362349     0.277788    Uiso  ? C
   N3         1.0     0.492668     0.375296     0.268813    Uiso  ? N
   C780       1.0     0.474746     0.372162     0.280813    Uiso  ? C
   H490       1.0     0.459115     0.378962     0.279477    Uiso  ? H
   C781       1.0     0.479722     0.359079     0.297941    Uiso  ? C
   H491       1.0     0.469034     0.356121     0.311561    Uiso  ? H
   N4         1.0     0.512853     0.209963     0.323723    Uiso  ? N
   C782       1.0     0.521102     0.205706     0.304172    Uiso  ? C
   H492       1.0     0.532166     0.193263     0.301568    Uiso  ? H
   H493       1.0     0.490684     0.234577     0.335221    Uiso  ? H
   H494       1.0     0.524371     0.360832     0.271908    Uiso  ? H
   C783       1.0     0.501703     0.735164     0.324506    Uiso  ? C
   H495       1.0     0.494179     0.720779     0.318478    Uiso  ? H
   C784       1.0     0.527671     0.756544     0.334104    Uiso  ? C
   N5         1.0     0.522499     0.740403     0.320535    Uiso  ? N
   C785       1.0     0.536787     0.728129     0.305829    Uiso  ? C
   H496       1.0     0.552658     0.735504     0.306778    Uiso  ? H
   H497       1.0     0.541129     0.711675     0.311044    Uiso  ? H
   C786       1.0     0.528331     0.728709     0.283269    Uiso  ? C
   C787       1.0     0.536895     0.743451     0.268900    Uiso  ? C
   C788       1.0     0.513981     0.712717     0.275758    Uiso  ? C
   C789       1.0     0.531339     0.742342     0.246276    Uiso  ? C
   H498       1.0     0.547692     0.756427     0.273782    Uiso  ? H
   C790       1.0     0.507244     0.712231     0.254071    Uiso  ? C
   H499       1.0     0.507153     0.701496     0.286622    Uiso  ? H
   C791       1.0     0.516537     0.726484     0.239301    Uiso  ? C
   H500       1.0     0.536412     0.754669     0.235306    Uiso  ? H
   H501       1.0     0.496871     0.699318     0.249068    Uiso  ? H
   C792       1.0     0.510296     0.726365     0.216800    Uiso  ? C
   H502       1.0     0.492534     0.722463     0.214456    Uiso  ? H
   H503       1.0     0.513428     0.741660     0.210152    Uiso  ? H
   N6         1.0     0.523990     0.710484     0.205633    Uiso  ? N
   C793       1.0     0.516001     0.696844     0.190591    Uiso  ? C
   N7         1.0     0.531374     0.683285     0.183547    Uiso  ? N
   C794       1.0     0.550074     0.690950     0.192124    Uiso  ? C
   H504       1.0     0.565422     0.682664     0.190732    Uiso  ? H
   C795       1.0     0.545284     0.708153     0.206278    Uiso  ? C
   H505       1.0     0.556383     0.716803     0.215760    Uiso  ? H
   N8         1.0     0.510652     0.762671     0.345748    Uiso  ? N
   C796       1.0     0.494850     0.749059     0.339912    Uiso  ? C
   H506       1.0     0.477487     0.748966     0.345085    Uiso  ? H
   H507       1.0     0.542287     0.763832     0.335987    Uiso  ? H
   H508       1.0     0.499618     0.694793     0.186181    Uiso  ? H
   C797       1.0     0.502284     0.628262     0.706303    Uiso  ? C
   H509       1.0     0.505703     0.631058     0.690015    Uiso  ? H
   C798       1.0     0.487357     0.628782     0.736508    Uiso  ? C
   N9         1.0     0.487440     0.638898     0.717614    Uiso  ? N
   C799       1.0     0.474113     0.656578     0.711246    Uiso  ? C
   H510       1.0     0.468418     0.654252     0.694099    Uiso  ? H
   H511       1.0     0.459313     0.657801     0.720152    Uiso  ? H
   C800       1.0     0.485841     0.678114     0.714291    Uiso  ? C
   C801       1.0     0.485061     0.689417     0.734066    Uiso  ? C
   C802       1.0     0.494731     0.688288     0.695558    Uiso  ? C
   C803       1.0     0.494071     0.709993     0.734858    Uiso  ? C
   H512       1.0     0.474746     0.683490     0.745539    Uiso  ? H
   C804       1.0     0.502414     0.709263     0.696903    Uiso  ? C
   H513       1.0     0.495914     0.681434     0.680330    Uiso  ? H
   C805       1.0     0.502425     0.721256     0.716418    Uiso  ? C
   H514       1.0     0.490196     0.718885     0.749164    Uiso  ? H
   H515       1.0     0.508037     0.716901     0.681889    Uiso  ? H
   C806       1.0     0.507617     0.744920     0.715858    Uiso  ? C
   H516       1.0     0.505307     0.751094     0.731769    Uiso  ? H
   H517       1.0     0.524639     0.745885     0.711797    Uiso  ? H
   N10        1.0     0.494922     0.756608     0.700812    Uiso  ? N
   C807       1.0     0.500886     0.764822     0.682094    Uiso  ? C
   N11        1.0     0.485613     0.776667     0.672863    Uiso  ? N
   C808       1.0     0.469993     0.778555     0.687515    Uiso  ? C
   H518       1.0     0.456508     0.789026     0.685864    Uiso  ? H
   C809       1.0     0.475450     0.765572     0.704501    Uiso  ? C
   H519       1.0     0.466819     0.762888     0.719839    Uiso  ? H
   N12        1.0     0.502252     0.613095     0.738203    Uiso  ? N
   C810       1.0     0.511890     0.613243     0.718627    Uiso  ? C
   H520       1.0     0.524809     0.602077     0.714737    Uiso  ? H
   H521       1.0     0.477520     0.634371     0.749936    Uiso  ? H
   H522       1.0     0.516827     0.762952     0.674656    Uiso  ? H
   C811       1.0     0.507578     0.265734     0.673060    Uiso  ? C
   H523       1.0     0.502236     0.281403     0.677579    Uiso  ? H
   C812       1.0     0.521561     0.234226     0.672885    Uiso  ? C
   N13        1.0     0.521510     0.252867     0.683733    Uiso  ? N
   C813       1.0     0.529527     0.256736     0.706247    Uiso  ? C
   H524       1.0     0.535713     0.242125     0.713798    Uiso  ? H
   H525       1.0     0.542850     0.268686     0.704804    Uiso  ? H
   C814       1.0     0.511077     0.263761     0.721160    Uiso  ? C
   C815       1.0     0.496945     0.249447     0.730560    Uiso  ? C
   C816       1.0     0.509540     0.285987     0.725703    Uiso  ? C
   C817       1.0     0.480090     0.256397     0.743553    Uiso  ? C
   H526       1.0     0.497181     0.231348     0.727130    Uiso  ? H
   C818       1.0     0.492808     0.293673     0.738779    Uiso  ? C
   H527       1.0     0.520906     0.298377     0.719158    Uiso  ? H
   C819       1.0     0.477675     0.278433     0.747713    Uiso  ? C
   H528       1.0     0.468787     0.245133     0.749449    Uiso  ? H
   H529       1.0     0.492179     0.310999     0.742149    Uiso  ? H
   C820       1.0     0.458685     0.287385     0.760678    Uiso  ? C
   H530       1.0     0.451097     0.300757     0.752270    Uiso  ? H
   H531       1.0     0.447355     0.273615     0.761368    Uiso  ? H
   N14        1.0     0.466617     0.293718     0.782088    Uiso  ? N
   C821       1.0     0.473555     0.313572     0.787475    Uiso  ? C
   N15        1.0     0.473445     0.315211     0.808743    Uiso  ? N
   C822       1.0     0.468050     0.295829     0.816726    Uiso  ? C
   H532       1.0     0.465326     0.292041     0.832592    Uiso  ? H
   C823       1.0     0.464299     0.281855     0.800118    Uiso  ? C
   H533       1.0     0.456980     0.266385     0.801094    Uiso  ? H
   N16        1.0     0.508925     0.234603     0.655491    Uiso  ? N
   C824       1.0     0.500542     0.254176     0.655414    Uiso  ? C
   H534       1.0     0.487857     0.259574     0.645870    Uiso  ? H
   H535       1.0     0.530776     0.219552     0.677752    Uiso  ? H
   H536       1.0     0.475892     0.326391     0.776305    Uiso  ? H
   C825       1.0     0.769065     0.298548     0.503980    Uiso  ? C
   H537       1.0     0.765830     0.283300     0.497692    Uiso  ? H
   C826       1.0     0.774709     0.323534     0.527272    Uiso  ? C
   N17        1.0     0.764045     0.304595     0.524927    Uiso  ? N
   C827       1.0     0.747740     0.295030     0.538291    Uiso  ? C
   H538       1.0     0.752966     0.278160     0.541790    Uiso  ? H
   H539       1.0     0.747522     0.304218     0.553033    Uiso  ? H
   C828       1.0     0.726657     0.296161     0.526609    Uiso  ? C
   C829       1.0     0.718489     0.279410     0.513814    Uiso  ? C
   C830       1.0     0.715521     0.315306     0.527070    Uiso  ? C
   C831       1.0     0.698746     0.280921     0.503892    Uiso  ? C
   H540       1.0     0.727408     0.265083     0.512369    Uiso  ? H
   C832       1.0     0.696204     0.316997     0.516957    Uiso  ? C
   H541       1.0     0.723039     0.329064     0.532733    Uiso  ? H
   C833       1.0     0.688664     0.300825     0.503797    Uiso  ? C
   H542       1.0     0.693823     0.266995     0.493430    Uiso  ? H
   H543       1.0     0.686203     0.330997     0.520232    Uiso  ? H
   C834       1.0     0.667694     0.303350     0.492035    Uiso  ? C
   H544       1.0     0.661970     0.319924     0.491868    Uiso  ? H
   H545       1.0     0.670812     0.298258     0.475021    Uiso  ? H
   N18        1.0     0.650199     0.291390     0.500948    Uiso  ? N
   C835       1.0     0.641715     0.274111     0.491825    Uiso  ? C
   N19        1.0     0.629907     0.262932     0.505865    Uiso  ? N
   C836       1.0     0.632746     0.273317     0.524845    Uiso  ? C
   H546       1.0     0.625596     0.269300     0.540453    Uiso  ? H
   C837       1.0     0.644524     0.291288     0.522322    Uiso  ? C
   H547       1.0     0.646978     0.302982     0.535024    Uiso  ? H
   N20        1.0     0.785449     0.330146     0.509616    Uiso  ? N
   C838       1.0     0.782766     0.313814     0.495403    Uiso  ? C
   H548       1.0     0.791864     0.313679     0.480648    Uiso  ? H
   H549       1.0     0.775476     0.334360     0.542049    Uiso  ? H
   H550       1.0     0.644442     0.268591     0.476061    Uiso  ? H
   C839       1.0     0.633279     0.701869     0.491238    Uiso  ? C
   H551       1.0     0.636212     0.691346     0.476925    Uiso  ? H
   C840       1.0     0.630415     0.714863     0.523476    Uiso  ? C
   N21        1.0     0.638464     0.698445     0.511714    Uiso  ? N
   C841       1.0     0.647354     0.678718     0.519196    Uiso  ? C
   H552       1.0     0.641074     0.675446     0.535387    Uiso  ? H
   H553       1.0     0.644134     0.664860     0.508759    Uiso  ? H
   C842       1.0     0.671560     0.682373     0.519959    Uiso  ? C
   C843       1.0     0.680138     0.693361     0.537636    Uiso  ? C
   C844       1.0     0.684591     0.679399     0.501203    Uiso  ? C
   C845       1.0     0.701544     0.698715     0.538464    Uiso  ? C
   H554       1.0     0.669503     0.697479     0.550369    Uiso  ? H
   C846       1.0     0.706453     0.685751     0.501535    Uiso  ? C
   H555       1.0     0.676095     0.672107     0.487200    Uiso  ? H
   C847       1.0     0.714850     0.694268     0.520554    Uiso  ? C
   H556       1.0     0.708116     0.706885     0.551889    Uiso  ? H
   H557       1.0     0.715510     0.684457     0.487321    Uiso  ? H
   C848       1.0     0.738696     0.699270     0.521257    Uiso  ? C
   H558       1.0     0.743027     0.702501     0.504232    Uiso  ? H
   H559       1.0     0.741173     0.713884     0.530789    Uiso  ? H
   N22        1.0     0.751924     0.682254     0.529634    Uiso  ? N
   C849       1.0     0.758589     0.664999     0.518715    Uiso  ? C
   N23        1.0     0.770630     0.652360     0.531292    Uiso  ? N
   C850       1.0     0.771753     0.662038     0.550979    Uiso  ? C
   H560       1.0     0.779142     0.655037     0.564168    Uiso  ? H
   C851       1.0     0.759918     0.680604     0.549796    Uiso  ? C
   H561       1.0     0.757229     0.693502     0.563158    Uiso  ? H
   N24        1.0     0.620466     0.728662     0.510093    Uiso  ? N
   C852       1.0     0.622543     0.721137     0.490448    Uiso  ? C
   H562       1.0     0.614783     0.728978     0.476273    Uiso  ? H
   H563       1.0     0.634586     0.718621     0.539739    Uiso  ? H
   H564       1.0     0.755157     0.661731     0.502383    Uiso  ? H
   C853       1.0     0.244032     0.313095     0.476020    Uiso  ? C
   H565       1.0     0.244260     0.297264     0.468408    Uiso  ? H
   C854       1.0     0.249559     0.340710     0.495464    Uiso  ? C
   N25        1.0     0.257595     0.320360     0.490918    Uiso  ? N
   C855       1.0     0.273750     0.308140     0.502635    Uiso  ? C
   H566       1.0     0.279680     0.317834     0.516822    Uiso  ? H
   H567       1.0     0.264398     0.293031     0.509016    Uiso  ? H
   C856       1.0     0.292371     0.304947     0.488462    Uiso  ? C
   C857       1.0     0.300853     0.283804     0.487738    Uiso  ? C
   C858       1.0     0.302551     0.322060     0.478021    Uiso  ? C
   C859       1.0     0.319944     0.280367     0.476025    Uiso  ? C
   H568       1.0     0.292530     0.269920     0.495360    Uiso  ? H
   C860       1.0     0.321375     0.318140     0.466237    Uiso  ? C
   H569       1.0     0.293809     0.336569     0.475859    Uiso  ? H
   C861       1.0     0.329581     0.297309     0.463687    Uiso  ? C
   H570       1.0     0.325735     0.263754     0.474492    Uiso  ? H
   H571       1.0     0.327579     0.330499     0.456830    Uiso  ? H
   C862       1.0     0.348170     0.291625     0.448167    Uiso  ? C
   H572       1.0     0.341107     0.278587     0.438132    Uiso  ? H
   H573       1.0     0.353441     0.305682     0.438773    Uiso  ? H
   N26        1.0     0.367362     0.284547     0.460033    Uiso  ? N
   C863       1.0     0.372913     0.263705     0.463823    Uiso  ? C
   N27        1.0     0.390426     0.262319     0.476349    Uiso  ? N
   C864       1.0     0.394436     0.282900     0.482296    Uiso  ? C
   H574       1.0     0.406009     0.286958     0.493737    Uiso  ? H
   C865       1.0     0.381090     0.296208     0.471732    Uiso  ? C
   H575       1.0     0.381744     0.314710     0.473280    Uiso  ? H
   N28        1.0     0.232877     0.347064     0.482330    Uiso  ? N
   C866       1.0     0.229927     0.329831     0.470189    Uiso  ? C
   H576       1.0     0.217508     0.327563     0.458018    Uiso  ? H
   H577       1.0     0.255538     0.351477     0.507751    Uiso  ? H
   H578       1.0     0.365439     0.250708     0.454737    Uiso  ? H
   C867       1.0     0.235179     0.700232     0.464547    Uiso  ? C
   H579       1.0     0.241200     0.711626     0.452172    Uiso  ? H
   C868       1.0     0.224448     0.688176     0.495410    Uiso  ? C
   N29        1.0     0.236498     0.703373     0.486187    Uiso  ? N
   C869       1.0     0.248213     0.720532     0.496747    Uiso  ? C
   H580       1.0     0.243165     0.736904     0.491125    Uiso  ? H
   H581       1.0     0.243792     0.719516     0.514663    Uiso  ? H
   C870       1.0     0.271914     0.717904     0.493066    Uiso  ? C
   C871       1.0     0.283902     0.703604     0.505746    Uiso  ? C
   C872       1.0     0.282473     0.727670     0.475270    Uiso  ? C
   C873       1.0     0.304993     0.698292     0.500665    Uiso  ? C
   H582       1.0     0.275875     0.694313     0.517569    Uiso  ? H
   C874       1.0     0.303184     0.722005     0.469372    Uiso  ? C
   H583       1.0     0.272723     0.738366     0.464950    Uiso  ? H
   C875       1.0     0.314520     0.707726     0.482306    Uiso  ? C
   H584       1.0     0.312848     0.685314     0.509794    Uiso  ? H
   H585       1.0     0.308945     0.728622     0.454814    Uiso  ? H
   C876       1.0     0.336761     0.700484     0.474358    Uiso  ? C
   H586       1.0     0.337389     0.682595     0.476047    Uiso  ? H
   H587       1.0     0.340447     0.704678     0.456363    Uiso  ? H
   N30        1.0     0.354154     0.710471     0.486829    Uiso  ? N
   C877       1.0     0.362993     0.730385     0.484425    Uiso  ? C
   N31        1.0     0.378207     0.734820     0.499554    Uiso  ? N
   C878       1.0     0.378934     0.717565     0.512242    Uiso  ? C
   H588       1.0     0.389706     0.715130     0.526105    Uiso  ? H
   C879       1.0     0.363792     0.702594     0.504176    Uiso  ? C
   H589       1.0     0.361095     0.686693     0.510441    Uiso  ? H
   N32        1.0     0.216014     0.674332     0.480644    Uiso  ? N
   C880       1.0     0.223215     0.681933     0.461940    Uiso  ? C
   H590       1.0     0.221733     0.674920     0.446255    Uiso  ? H
   H591       1.0     0.222834     0.686413     0.512634    Uiso  ? H
   H592       1.0     0.359321     0.742418     0.471100    Uiso  ? H
   C881       1.0     0.669152     0.543210     0.262068    Uiso  ? C
   H593       1.0     0.684936     0.547602     0.266348    Uiso  ? H
   C882       1.0     0.635140     0.533036     0.267226    Uiso  ? C
   N33        1.0     0.652727     0.542228     0.276963    Uiso  ? N
   C883       1.0     0.654721     0.547052     0.300157    Uiso  ? C
   H594       1.0     0.664087     0.561765     0.302262    Uiso  ? H
   H595       1.0     0.638703     0.551153     0.305774    Uiso  ? H
   C884       1.0     0.663217     0.527451     0.311836    Uiso  ? C
   C885       1.0     0.649142     0.512280     0.321496    Uiso  ? C
   C886       1.0     0.684824     0.524615     0.314037    Uiso  ? C
   C887       1.0     0.657437     0.494306     0.331706    Uiso  ? C
   H596       1.0     0.632034     0.514741     0.321493    Uiso  ? H
   C888       1.0     0.692921     0.507708     0.326368    Uiso  ? C
   H597       1.0     0.694836     0.536353     0.305956    Uiso  ? H
   C889       1.0     0.679178     0.492495     0.335898    Uiso  ? C
   H598       1.0     0.647134     0.482302     0.339327    Uiso  ? H
   H599       1.0     0.709962     0.506792     0.329052    Uiso  ? H
   C890       1.0     0.687888     0.474280     0.350245    Uiso  ? C
   H600       1.0     0.675477     0.462785     0.355157    Uiso  ? H
   H601       1.0     0.698910     0.464222     0.340786    Uiso  ? H
   N34        1.0     0.699183     0.482411     0.368972    Uiso  ? N
   C891       1.0     0.720551     0.481968     0.372527    Uiso  ? C
   N35        1.0     0.724031     0.487765     0.393396    Uiso  ? N
   C892       1.0     0.705033     0.490174     0.403616    Uiso  ? C
   H602       1.0     0.702488     0.495653     0.419163    Uiso  ? H
   C893       1.0     0.689490     0.487787     0.388403    Uiso  ? C
   H603       1.0     0.673014     0.486463     0.390484    Uiso  ? H
   N36        1.0     0.640058     0.528649     0.246348    Uiso  ? N
   C894       1.0     0.660641     0.534956     0.243337    Uiso  ? C
   H604       1.0     0.670001     0.531241     0.228794    Uiso  ? H
   H605       1.0     0.618890     0.534322     0.273505    Uiso  ? H
   H606       1.0     0.734561     0.477335     0.362380    Uiso  ? H
   C895       1.0     0.387556     0.551110     0.302758    Uiso  ? C
   H607       1.0     0.388495     0.550712     0.320258    Uiso  ? H
   C896       1.0     0.376541     0.556436     0.270995    Uiso  ? C
   N37        1.0     0.372189     0.561035     0.291354    Uiso  ? N
   C897       1.0     0.353054     0.572365     0.299869    Uiso  ? C
   H608       1.0     0.359056     0.580126     0.313412    Uiso  ? H
   H609       1.0     0.346702     0.583683     0.287871    Uiso  ? H
   C898       1.0     0.335308     0.556153     0.306150    Uiso  ? C
   C899       1.0     0.323415     0.545867     0.289828    Uiso  ? C
   C900       1.0     0.329552     0.553322     0.327150    Uiso  ? C
   C901       1.0     0.309441     0.528944     0.295414    Uiso  ? C
   H610       1.0     0.327192     0.550069     0.272910    Uiso  ? H
   C902       1.0     0.315519     0.537213     0.333170    Uiso  ? C
   H611       1.0     0.337549     0.561632     0.340106    Uiso  ? H
   C903       1.0     0.305613     0.523844     0.317080    Uiso  ? C
   H612       1.0     0.299036     0.521920     0.283525    Uiso  ? H
   H613       1.0     0.314678     0.535216     0.350136    Uiso  ? H
   C904       1.0     0.291071     0.505676     0.322198    Uiso  ? C
   H614       1.0     0.288695     0.494776     0.309113    Uiso  ? H
   H615       1.0     0.297633     0.497433     0.335218    Uiso  ? H
   N38        1.0     0.269242     0.513539     0.327403    Uiso  ? N
   C905       1.0     0.257945     0.510176     0.345572    Uiso  ? C
   N39        1.0     0.238321     0.519643     0.344928    Uiso  ? N
   C906       1.0     0.237000     0.528024     0.324559    Uiso  ? C
   H616       1.0     0.223946     0.535856     0.318005    Uiso  ? H
   C907       1.0     0.256156     0.524353     0.314314    Uiso  ? C
   H617       1.0     0.258803     0.526588     0.297576    Uiso  ? H
   N40        1.0     0.394501     0.545371     0.268614    Uiso  ? N
   C908       1.0     0.400967     0.541183     0.288816    Uiso  ? C
   H618       1.0     0.414886     0.532317     0.292746    Uiso  ? H
   H619       1.0     0.368735     0.563859     0.256379    Uiso  ? H
   H620       1.0     0.263012     0.500072     0.359109    Uiso  ? H
   C909       1.0     0.339508     0.452783     0.730843    Uiso  ? C
   H621       1.0     0.337064     0.441087     0.717410    Uiso  ? H
   C910       1.0     0.337607     0.480812     0.750668    Uiso  ? C
   N41        1.0     0.329576     0.472295     0.732032    Uiso  ? N
   C911       1.0     0.311120     0.480549     0.719213    Uiso  ? C
   H622       1.0     0.297148     0.469935     0.721300    Uiso  ? H
   H623       1.0     0.306301     0.497464     0.725626    Uiso  ? H
   C912       1.0     0.317180     0.480992     0.695757    Uiso  ? C
   C913       1.0     0.309093     0.466326     0.680690    Uiso  ? C
   C914       1.0     0.329634     0.498285     0.688230    Uiso  ? C
   C915       1.0     0.315135     0.468078     0.659268    Uiso  ? C
   H624       1.0     0.297254     0.455509     0.684916    Uiso  ? H
   C916       1.0     0.335559     0.499314     0.666729    Uiso  ? C
   H625       1.0     0.334676     0.511434     0.699796    Uiso  ? H
   C917       1.0     0.327333     0.484509     0.651579    Uiso  ? C
   H626       1.0     0.307947     0.456793     0.647758    Uiso  ? H
   H627       1.0     0.344486     0.513873     0.662913    Uiso  ? H
   C918       1.0     0.331844     0.487741     0.627771    Uiso  ? C
   H628       1.0     0.347995     0.493473     0.625808    Uiso  ? H
   H629       1.0     0.330234     0.471152     0.618388    Uiso  ? H
   N42        1.0     0.315103     0.501154     0.617557    Uiso  ? N
   C919       1.0     0.295972     0.495043     0.609290    Uiso  ? C
   N43        1.0     0.284561     0.511314     0.601140    Uiso  ? N
   C920       1.0     0.297606     0.527866     0.601835    Uiso  ? C
   H630       1.0     0.293483     0.544356     0.596334    Uiso  ? H
   C921       1.0     0.316366     0.522395     0.613227    Uiso  ? C
   H631       1.0     0.329910     0.532582     0.617791    Uiso  ? H
   N44        1.0     0.352814     0.468792     0.759062    Uiso  ? N
   C922       1.0     0.353026     0.450444     0.747838    Uiso  ? C
   H632       1.0     0.363628     0.436525     0.750043    Uiso  ? H
   H633       1.0     0.334655     0.496518     0.755912    Uiso  ? H
   H634       1.0     0.290364     0.478661     0.608514    Uiso  ? H
   C923       1.0     0.647905     0.420817     0.727169    Uiso  ? C
   H635       1.0     0.662294     0.410647     0.724640    Uiso  ? H
   C924       1.0     0.625680     0.447911     0.727835    Uiso  ? C
   N45        1.0     0.642572     0.438718     0.717079    Uiso  ? N
   C925       1.0     0.652772     0.447059     0.697831    Uiso  ? C
   H636       1.0     0.650910     0.435985     0.683708    Uiso  ? H
   H637       1.0     0.644715     0.461788     0.693116    Uiso  ? H
   C926       1.0     0.675819     0.452903     0.700813    Uiso  ? C
   C927       1.0     0.681196     0.470661     0.713957    Uiso  ? C
   C928       1.0     0.691887     0.441321     0.690211    Uiso  ? C
   C929       1.0     0.702448     0.477237     0.716718    Uiso  ? C
   H638       1.0     0.668950     0.479103     0.721406    Uiso  ? H
   C930       1.0     0.712789     0.448150     0.693132    Uiso  ? C
   H639       1.0     0.688633     0.429126     0.678256    Uiso  ? H
   C931       1.0     0.718880     0.467147     0.705287    Uiso  ? C
   H640       1.0     0.705871     0.491179     0.725290    Uiso  ? H
   H641       1.0     0.724976     0.439819     0.684851    Uiso  ? H
   C932       1.0     0.741236     0.476379     0.704945    Uiso  ? C
   H642       1.0     0.742319     0.489142     0.716543    Uiso  ? H
   H643       1.0     0.753587     0.463713     0.707217    Uiso  ? H
   N46        1.0     0.746138     0.485439     0.683929    Uiso  ? N
   C933       1.0     0.762835     0.480501     0.670675    Uiso  ? C
   N47        1.0     0.762493     0.490715     0.651937    Uiso  ? N
   C934       1.0     0.744204     0.502771     0.652760    Uiso  ? C
   H644       1.0     0.738850     0.513555     0.640149    Uiso  ? H
   C935       1.0     0.735678     0.500865     0.673182    Uiso  ? C
   H645       1.0     0.720117     0.506728     0.676332    Uiso  ? H
   N48        1.0     0.621253     0.436998     0.745560    Uiso  ? N
   C936       1.0     0.634563     0.419466     0.745085    Uiso  ? C
   H646       1.0     0.636182     0.406341     0.757241    Uiso  ? H
   H647       1.0     0.618137     0.462345     0.722093    Uiso  ? H
   H648       1.0     0.775821     0.469508     0.676397    Uiso  ? H
   C937       1.0     0.751519     0.717111     0.125305    Uiso  ? C
   H649       1.0     0.750294     0.702291     0.133363    Uiso  ? H
   C938       1.0     0.741159     0.744244     0.105803    Uiso  ? C
   N49        1.0     0.735441     0.724452     0.112328    Uiso  ? N
   C939       1.0     0.714534     0.713454     0.106811    Uiso  ? C
   H650       1.0     0.703318     0.715294     0.121181    Uiso  ? H
   H651       1.0     0.708389     0.721652     0.893452    Uiso  ? H
   C940       1.0     0.718231     0.690541     0.100000    Uiso  ? C
   C941       1.0     0.732132     0.684715     0.883034    Uiso  ? C
   C942       1.0     0.708640     0.674050     0.111963    Uiso  ? C
   C943       1.0     0.735460     0.663113     0.877860    Uiso  ? C
   H652       1.0     0.739544     0.697986     0.874118    Uiso  ? H
   C944       1.0     0.709967     0.652801     0.104293    Uiso  ? C
   H653       1.0     0.699202     0.677726     0.125812    Uiso  ? H
   C945       1.0     0.724427     0.645837     0.888214    Uiso  ? C
   H654       1.0     0.744795     0.659103     0.863447    Uiso  ? H
   H655       1.0     0.699539     0.640739     0.112350    Uiso  ? H
   C946       1.0     0.726642     0.622897     0.882011    Uiso  ? C
   H656       1.0     0.741512     0.621404     0.872210    Uiso  ? H
   H657       1.0     0.728363     0.612599     0.896362    Uiso  ? H
   N50        1.0     0.708219     0.615781     0.869169    Uiso  ? N
   C947       1.0     0.689794     0.608358     0.875945    Uiso  ? C
   N51        1.0     0.675838     0.604823     0.859772    Uiso  ? N
   C948       1.0     0.685638     0.612150     0.842233    Uiso  ? C
   H658       1.0     0.678716     0.611405     0.826028    Uiso  ? H
   C949       1.0     0.705488     0.618798     0.847985    Uiso  ? C
   H659       1.0     0.716297     0.625014     0.835870    Uiso  ? H
   N52        1.0     0.760305     0.749832     0.114232    Uiso  ? N
   C950       1.0     0.766583     0.733032     0.126280    Uiso  ? C
   H660       1.0     0.780112     0.734049     0.136587    Uiso  ? H
   H661       1.0     0.731895     0.753443     0.895772    Uiso  ? H
   H662       1.0     0.684236     0.606549     0.891751    Uiso  ? H
   C951       1.0     0.662113     0.324255     0.142755    Uiso  ? C
   H663       1.0     0.666747     0.308849     0.148641    Uiso  ? H
   C952       1.0     0.662407     0.357678     0.132888    Uiso  ? C
   N53        1.0     0.674790     0.342096     0.141294    Uiso  ? N
   C953       1.0     0.697695     0.344601     0.147440    Uiso  ? C
   H664       1.0     0.700512     0.361869     0.149959    Uiso  ? H
   H665       1.0     0.700331     0.336582     0.162889    Uiso  ? H
   C954       1.0     0.711747     0.338477     0.129211    Uiso  ? C
   C955       1.0     0.713966     0.317243     0.122829    Uiso  ? C
   C956       1.0     0.722382     0.354230     0.116653    Uiso  ? C
   C957       1.0     0.729498     0.311397     0.108282    Uiso  ? C
   H666       1.0     0.704098     0.305432     0.130210    Uiso  ? H
   C958       1.0     0.734144     0.347080     0.899133    Uiso  ? C
   H667       1.0     0.718045     0.371087     0.118853    Uiso  ? H
   C959       1.0     0.739464     0.325045     0.895754    Uiso  ? C
   H668       1.0     0.733100     0.294135     0.108336    Uiso  ? H
   H669       1.0     0.741709     0.360670     0.890221    Uiso  ? H
   C960       1.0     0.757093     0.318970     0.879592    Uiso  ? C
   H670       1.0     0.749299     0.309901     0.866927    Uiso  ? H
   H671       1.0     0.763836     0.333588     0.871996    Uiso  ? H
   N54        1.0     0.775293     0.308177     0.890177    Uiso  ? N
   C961       1.0     0.778401     0.286881     0.890457    Uiso  ? C
   N55        1.0     0.795164     0.282873     0.102067    Uiso  ? N
   C962       1.0     0.803294     0.301738     0.109831    Uiso  ? C
   H672       1.0     0.817644     0.301523     0.118131    Uiso  ? H
   C963       1.0     0.790667     0.318317     0.102457    Uiso  ? C
   H673       1.0     0.792927     0.335469     0.104543    Uiso  ? H
   N56        1.0     0.642769     0.350547     0.128143    Uiso  ? N
   C964       1.0     0.642567     0.330302     0.135060    Uiso  ? C
   H674       1.0     0.628651     0.319425     0.135145    Uiso  ? H
   H675       1.0     0.666909     0.374774     0.130268    Uiso  ? H
   H676       1.0     0.767591     0.275588     0.883999    Uiso  ? H
   C965       1.0     0.204062     0.693799     0.872632    Uiso  ? C
   H677       1.0     0.207412     0.679390     0.862856    Uiso  ? H
   C966       1.0     0.204385     0.717931     0.897558    Uiso  ? C
   N57        1.0     0.211577     0.697917     0.892491    Uiso  ? N
   C967       1.0     0.225359     0.683240     0.104872    Uiso  ? C
   H678       1.0     0.225008     0.687203     0.122433    Uiso  ? H
   H679       1.0     0.218986     0.666556     0.102118    Uiso  ? H
   C968       1.0     0.248933     0.682319     0.898048    Uiso  ? C
   C969       1.0     0.259307     0.662898     0.892616    Uiso  ? C
   C970       1.0     0.259823     0.702182     0.895810    Uiso  ? C
   C971       1.0     0.280253     0.662810     0.886172    Uiso  ? C
   H680       1.0     0.252320     0.647287     0.896902    Uiso  ? H
   C972       1.0     0.280755     0.702497     0.887620    Uiso  ? C
   H681       1.0     0.252006     0.716507     0.900000    Uiso  ? H
   C973       1.0     0.290851     0.682757     0.882052    Uiso  ? C
   H682       1.0     0.288342     0.648807     0.880573    Uiso  ? H
   H683       1.0     0.288369     0.718366     0.884912    Uiso  ? H
   C974       1.0     0.312284     0.681726     0.870240    Uiso  ? C
   H684       1.0     0.310038     0.675968     0.853110    Uiso  ? H
   H685       1.0     0.319018     0.696942     0.868563    Uiso  ? H
   N58        1.0     0.328211     0.666333     0.880416    Uiso  ? N
   C975       1.0     0.339718     0.651082     0.870380    Uiso  ? C
   N59        1.0     0.352669     0.640874     0.883983    Uiso  ? N
   C976       1.0     0.350693     0.652424     0.102284    Uiso  ? C
   H686       1.0     0.357000     0.646346     0.117016    Uiso  ? H
   C977       1.0     0.335337     0.667947     0.100710    Uiso  ? C
   H687       1.0     0.329342     0.677586     0.113691    Uiso  ? H
   N60        1.0     0.192584     0.726792     0.881959    Uiso  ? N
   C978       1.0     0.192370     0.712276     0.866066    Uiso  ? C
   H688       1.0     0.184520     0.714679     0.850929    Uiso  ? H
   H689       1.0     0.206319     0.725859     0.113271    Uiso  ? H
   H690       1.0     0.337012     0.646176     0.854639    Uiso  ? H
   C979       1.0     0.302203     0.376825     0.160133    Uiso  ? C
   H691       1.0     0.287152     0.376869     0.170011    Uiso  ? H
   C980       1.0     0.332000     0.364031     0.148275    Uiso  ? C
   N61        1.0     0.313311     0.358352     0.156389    Uiso  ? N
   C981       1.0     0.304271     0.336631     0.158546    Uiso  ? C
   H692       1.0     0.317154     0.324786     0.159596    Uiso  ? H
   H693       1.0     0.294178     0.333959     0.173253    Uiso  ? H
   C982       1.0     0.291329     0.330782     0.139218    Uiso  ? C
   C983       1.0     0.300813     0.326950     0.119308    Uiso  ? C
   C984       1.0     0.268620     0.327449     0.141096    Uiso  ? C
   C985       1.0     0.287833     0.321677     0.100813    Uiso  ? C
   H694       1.0     0.318018     0.331507     0.117209    Uiso  ? H
   C986       1.0     0.256325     0.320463     0.123578    Uiso  ? C
   H695       1.0     0.261720     0.329074     0.156629    Uiso  ? H
   C987       1.0     0.265823     0.317179     0.103243    Uiso  ? C
   H696       1.0     0.294252     0.320015     0.884240    Uiso  ? H
   H697       1.0     0.239115     0.317951     0.126408    Uiso  ? H
   C988       1.0     0.252909     0.308533     0.884679    Uiso  ? C
   H698       1.0     0.235955     0.313776     0.884214    Uiso  ? H
   H699       1.0     0.260031     0.314569     0.869861    Uiso  ? H
   N62        1.0     0.252799     0.284074     0.883198    Uiso  ? N
   C989       1.0     0.236092     0.270882     0.888408    Uiso  ? C
   N63        1.0     0.240131     0.250992     0.882095    Uiso  ? N
   C990       1.0     0.259885     0.250761     0.873301    Uiso  ? C
   H700       1.0     0.268045     0.236363     0.865827    Uiso  ? H
   C991       1.0     0.267658     0.271524     0.873078    Uiso  ? C
   H701       1.0     0.282940     0.276712     0.865543    Uiso  ? H
   N64        1.0     0.333722     0.385306     0.146405    Uiso  ? N
   C992       1.0     0.315063     0.393804     0.154323    Uiso  ? C
   H702       1.0     0.313212     0.410773     0.159396    Uiso  ? H
   H703       1.0     0.344025     0.353191     0.145968    Uiso  ? H
   H704       1.0     0.223175     0.275943     0.898566    Uiso  ? H
   C993       1.0     0.689990     0.117122     0.650123    Uiso  ? C
   H705       1.0     0.704323     0.126453     0.652782    Uiso  ? H
   C994       1.0     0.663114     0.890096     0.653592    Uiso  ? C
   N65        1.0     0.682265     0.896359     0.661947    Uiso  ? N
   C995       1.0     0.693284     0.889112     0.680881    Uiso  ? C
   H706       1.0     0.685981     0.872792     0.684324    Uiso  ? H
   H707       1.0     0.710811     0.889329     0.678382    Uiso  ? H
   C996       1.0     0.687957     0.108282     0.698564    Uiso  ? C
   C997       1.0     0.668901     0.105378     0.710405    Uiso  ? C
   C998       1.0     0.702724     0.124811     0.704066    Uiso  ? C
   C999       1.0     0.665298     0.118005     0.727819    Uiso  ? C
   H708       1.0     0.655774     0.891576     0.702252    Uiso  ? H
   C1000      1.0     0.698759     0.137043     0.722358    Uiso  ? C
   H709       1.0     0.717806     0.127016     0.695177    Uiso  ? H
   C1001      1.0     0.680052     0.134180     0.734610    Uiso  ? C
   H710       1.0     0.649374     0.117422     0.734874    Uiso  ? H
   H711       1.0     0.710150     0.148882     0.727428    Uiso  ? H
   C1002      1.0     0.676233     0.149138     0.753443    Uiso  ? C
   H712       1.0     0.681957     0.165321     0.751907    Uiso  ? H
   H713       1.0     0.658827     0.149992     0.755293    Uiso  ? H
   N66        1.0     0.686649     0.139761     0.772722    Uiso  ? N
   C1003      1.0     0.708144     0.141874     0.778448    Uiso  ? C
   N67        1.0     0.712877     0.129276     0.794816    Uiso  ? N
   C1004      1.0     0.694364     0.119028     0.800044    Uiso  ? C
   H714       1.0     0.692802     0.107459     0.812483    Uiso  ? H
   C1005      1.0     0.678109     0.125624     0.786853    Uiso  ? C
   H715       1.0     0.661116     0.121995     0.787505    Uiso  ? H
   N68        1.0     0.659241     0.107068     0.636805    Uiso  ? N
   C1006      1.0     0.675202     0.121050     0.633857    Uiso  ? C
   H716       1.0     0.674785     0.132453     0.621634    Uiso  ? H
   H717       1.0     0.650916     0.879365     0.660761    Uiso  ? H
   H718       1.0     0.718685     0.152936     0.770305    Uiso  ? H
   C1007      1.0     0.278937     0.872599     0.749011    Uiso  ? C
   H719       1.0     0.296066     0.870674     0.749449    Uiso  ? H
   C1008      1.0     0.246177     0.874858     0.738229    Uiso  ? C
   N69        1.0     0.266088     0.871606     0.731402    Uiso  ? N
   C1009      1.0     0.273129     0.863719     0.710089    Uiso  ? C
   H720       1.0     0.285916     0.850972     0.712346    Uiso  ? H
   H721       1.0     0.258553     0.857014     0.701128    Uiso  ? H
   C1010      1.0     0.281760     0.882597     0.695752    Uiso  ? C
   C1011      1.0     0.267324     0.894952     0.683274    Uiso  ? C
   C1012      1.0     0.303372     0.888570     0.695744    Uiso  ? C
   C1013      1.0     0.274972     0.115445     0.670304    Uiso  ? C
   H722       1.0     0.249976     0.891026     0.683444    Uiso  ? H
   C1014      1.0     0.311595     0.108691     0.682446    Uiso  ? C
   H723       1.0     0.315125     0.879698     0.704335    Uiso  ? H
   C1015      1.0     0.297086     0.120460     0.669699    Uiso  ? C
   H724       1.0     0.264019     0.123513     0.661093    Uiso  ? H
   H725       1.0     0.328041     0.110745     0.679879    Uiso  ? H
   C1016      1.0     0.304441     0.136833     0.653343    Uiso  ? C
   H726       1.0     0.290048     0.147450     0.648763    Uiso  ? H
   H727       1.0     0.317569     0.148124     0.659990    Uiso  ? H
   N70        1.0     0.311915     0.125302     0.633906    Uiso  ? N
   C1017      1.0     0.332965     0.122836     0.629797    Uiso  ? C
   N71        1.0     0.335631     0.112376     0.611621    Uiso  ? N
   C1018      1.0     0.316872     0.106302     0.604418    Uiso  ? C
   H728       1.0     0.313727     0.894191     0.588567    Uiso  ? H
   C1019      1.0     0.301298     0.113051     0.619202    Uiso  ? C
   H729       1.0     0.283991     0.111187     0.619056    Uiso  ? H
   N72        1.0     0.245118     0.878022     0.759569    Uiso  ? N
   C1020      1.0     0.265602     0.876935     0.766690    Uiso  ? C
   H730       1.0     0.270425     0.879423     0.783099    Uiso  ? H
   H731       1.0     0.232642     0.873927     0.727035    Uiso  ? H
   H732       1.0     0.344972     0.130431     0.638273    Uiso  ? H
   C1021      1.0     0.297724     0.112340     0.214464    Uiso  ? C
   H733       1.0     0.310772     0.123626     0.217120    Uiso  ? H
   C1022      1.0     0.279770     0.877270     0.211862    Uiso  ? C
   N73        1.0     0.297381     0.887284     0.219612    Uiso  ? N
   C1023      1.0     0.315753     0.876546     0.229868    Uiso  ? C
   H734       1.0     0.319761     0.859666     0.223152    Uiso  ? H
   H735       1.0     0.330918     0.886390     0.226279    Uiso  ? H
   C1024      1.0     0.311957     0.875320     0.253843    Uiso  ? C
   C1025      1.0     0.297090     0.888929     0.264580    Uiso  ? C
   C1026      1.0     0.324879     0.861760     0.265766    Uiso  ? C
   C1027      1.0     0.297376     0.890096     0.286590    Uiso  ? C
   H736       1.0     0.286849     0.103612     0.255645    Uiso  ? H
   C1028      1.0     0.322136     0.859799     0.288386    Uiso  ? C
   H737       1.0     0.336931     0.853447     0.256854    Uiso  ? H
   C1029      1.0     0.308154     0.874251     0.299181    Uiso  ? C
   H738       1.0     0.286767     0.104613     0.295040    Uiso  ? H
   H739       1.0     0.332189     0.847881     0.298543    Uiso  ? H
   C1030      1.0     0.304664     0.871918     0.323371    Uiso  ? C
   H740       1.0     0.288162     0.877290     0.326952    Uiso  ? H
   H741       1.0     0.308146     0.854116     0.328251    Uiso  ? H
   N74        1.0     0.320243     0.884995     0.336102    Uiso  ? N
   C1031      1.0     0.337849     0.877970     0.346882    Uiso  ? C
   N75        1.0     0.346566     0.893793     0.357974    Uiso  ? N
   C1032      1.0     0.336058     0.116059     0.353169    Uiso  ? C
   H742       1.0     0.339599     0.130490     0.360783    Uiso  ? H
   C1033      1.0     0.318753     0.109990     0.340282    Uiso  ? C
   H743       1.0     0.306918     0.120366     0.334239    Uiso  ? H
   N76        1.0     0.268189     0.892255     0.200302    Uiso  ? N
   C1034      1.0     0.279686     0.114859     0.202205    Uiso  ? C
   H744       1.0     0.274919     0.129891     0.193164    Uiso  ? H
   H745       1.0     0.272963     0.861101     0.216149    Uiso  ? H
   H746       1.0     0.344519     0.861616     0.346215    Uiso  ? H
   C1035      1.0     0.701739     0.850455     0.378979    Uiso  ? C
   H747       1.0     0.709237     0.836587     0.373930    Uiso  ? H
   C1036      1.0     0.694247     0.883797     0.384783    Uiso  ? C
   N77        1.0     0.709182     0.870681     0.377415    Uiso  ? N
   C1037      1.0     0.727598     0.876288     0.364702    Uiso  ? C
   H748       1.0     0.734614     0.891615     0.372325    Uiso  ? H
   H749       1.0     0.739963     0.863006     0.366437    Uiso  ? H
   C1038      1.0     0.721419     0.882247     0.342320    Uiso  ? C
   C1039      1.0     0.713494     0.106827     0.337261    Uiso  ? C
   C1040      1.0     0.724959     0.866844     0.325763    Uiso  ? C
   C1041      1.0     0.706680     0.110642     0.315396    Uiso  ? C
   H750       1.0     0.708612     0.117307     0.350514    Uiso  ? H
   C1042      1.0     0.718737     0.870613     0.305126    Uiso  ? C
   H751       1.0     0.732542     0.852243     0.328214    Uiso  ? H
   C1043      1.0     0.709264     0.890844     0.299836    Uiso  ? C
   H752       1.0     0.697517     0.124300     0.311479    Uiso  ? H
   H753       1.0     0.722013     0.858919     0.291975    Uiso  ? H
   C1044      1.0     0.701806     0.895851     0.278326    Uiso  ? C
   H754       1.0     0.696616     0.881362     0.269184    Uiso  ? H
   H755       1.0     0.686628     0.108170     0.278941    Uiso  ? H
   N78        1.0     0.718017     0.112783     0.266235    Uiso  ? N
   C1045      1.0     0.734284     0.104766     0.254796    Uiso  ? C
   N79        1.0     0.743974     0.120967     0.243720    Uiso  ? N
   C1046      1.0     0.734229     0.138902     0.249548    Uiso  ? C
   H756       1.0     0.736974     0.155165     0.244782    Uiso  ? H
   C1047      1.0     0.718173     0.134469     0.263795    Uiso  ? C
   H757       1.0     0.708412     0.145103     0.270987    Uiso  ? H
   N80        1.0     0.676690     0.871771     0.391402    Uiso  ? N
   C1048      1.0     0.681630     0.850551     0.388389    Uiso  ? C
   H758       1.0     0.671491     0.835548     0.392179    Uiso  ? H
   H759       1.0     0.695643     0.104295     0.385019    Uiso  ? H
   H760       1.0     0.737863     0.883589     0.252278    Uiso  ? H
   C1049      1.0     0.161893     0.352084     0.680889    Uiso  ? C
   H761       1.0     0.174352     0.342637     0.688601    Uiso  ? H
   C1050      1.0     0.133007     0.367394     0.673624    Uiso  ? C
   N81        1.0     0.142115     0.355780     0.688641    Uiso  ? N
   C1051      1.0     0.131918     0.346460     0.708013    Uiso  ? C
   H762       1.0     0.142561     0.344166     0.721271    Uiso  ? H
   H763       1.0     0.119543     0.357358     0.714129    Uiso  ? H
   C1052      1.0     0.122865     0.324687     0.702407    Uiso  ? C
   C1053      1.0     0.104284     0.323051     0.690373    Uiso  ? C
   C1054      1.0     0.135413     0.307124     0.707146    Uiso  ? C
   C1055      1.0     0.893711     0.303025     0.684567    Uiso  ? C
   H764       1.0     0.891615     0.337343     0.685841    Uiso  ? H
   C1056      1.0     0.129403     0.287230     0.699784    Uiso  ? C
   H765       1.0     0.150197     0.308954     0.715571    Uiso  ? H
   C1057      1.0     0.110131     0.284528     0.689646    Uiso  ? C
   H766       1.0     0.880153     0.301126     0.672938    Uiso  ? H
   H767       1.0     0.139405     0.273392     0.702884    Uiso  ? H
   C1058      1.0     0.102580     0.262157     0.682663    Uiso  ? C
   H768       1.0     0.886953     0.263512     0.669238    Uiso  ? H
   H769       1.0     0.115400     0.252429     0.675972    Uiso  ? H
   N82        1.0     0.888094     0.250746     0.700481    Uiso  ? N
   C1059      1.0     0.896382     0.236069     0.714786    Uiso  ? C
   N83        1.0     0.882132     0.229537     0.729432    Uiso  ? N
   C1060      1.0     0.863263     0.239688     0.723862    Uiso  ? C
   H770       1.0     0.848724     0.240396     0.732488    Uiso  ? H
   C1061      1.0     0.868196     0.253243     0.707918    Uiso  ? C
   H771       1.0     0.856574     0.264894     0.702430    Uiso  ? H
   N84        1.0     0.146525     0.372459     0.657488    Uiso  ? N
   C1062      1.0     0.164817     0.361983     0.661751    Uiso  ? C
   H772       1.0     0.177897     0.361919     0.651580    Uiso  ? H
   H773       1.0     0.116726     0.372201     0.673522    Uiso  ? H
   H774       1.0     0.116471     0.231218     0.713208    Uiso  ? H
   C1063      1.0     0.840303     0.763878     0.703536    Uiso  ? C
   H775       1.0     0.829414     0.756692     0.692106    Uiso  ? H
   C1064      1.0     0.869014     0.777316     0.716474    Uiso  ? C
   N85        1.0     0.861600     0.765532     0.699802    Uiso  ? N
   C1065      1.0     0.873715     0.754399     0.682791    Uiso  ? C
   H776       1.0     0.867049     0.760926     0.667599    Uiso  ? H
   H777       1.0     0.891290     0.758255     0.684494    Uiso  ? H
   C1066      1.0     0.872201     0.730102     0.686437    Uiso  ? C
   C1067      1.0     0.862715     0.715766     0.670925    Uiso  ? C
   C1068      1.0     0.881781     0.721246     0.705297    Uiso  ? C
   C1069      1.0     0.864146     0.693186     0.674974    Uiso  ? C
   H778       1.0     0.856238     0.721315     0.656518    Uiso  ? H
   C1070      1.0     0.881068     0.698804     0.708830    Uiso  ? C
   H779       1.0     0.889526     0.731258     0.716405    Uiso  ? H
   C1071      1.0     0.871647     0.684120     0.693604    Uiso  ? C
   H780       1.0     0.859442     0.682731     0.662618    Uiso  ? H
   H781       1.0     0.886715     0.693162     0.723500    Uiso  ? H
   C1072      1.0     0.871851     0.659517     0.696661    Uiso  ? C
   H782       1.0     0.872206     0.655654     0.713453    Uiso  ? H
   H783       1.0     0.855305     0.653984     0.690883    Uiso  ? H
   N86        1.0     0.889623     0.650538     0.684997    Uiso  ? N
   C1073      1.0     0.886873     0.636188     0.669086    Uiso  ? C
   N87        1.0     0.110562     0.628016     0.663451    Uiso  ? N
   C1074      1.0     0.124519     0.636939     0.677556    Uiso  ? C
   H784       1.0     0.141751     0.635614     0.677938    Uiso  ? H
   C1075      1.0     0.113848     0.650644     0.690532    Uiso  ? C
   H785       1.0     0.120122     0.658768     0.704250    Uiso  ? H
   N88        1.0     0.854228     0.781620     0.730806    Uiso  ? N
   C1076      1.0     0.835779     0.775419     0.721914    Uiso  ? C
   H786       1.0     0.820402     0.779494     0.729999    Uiso  ? H
   H787       1.0     0.885802     0.780027     0.720170    Uiso  ? H
   H788       1.0     0.872607     0.631666     0.662042    Uiso  ? H
   C1077      1.0     0.876005     0.652506     0.308206    Uiso  ? C
   H789       1.0     0.882656     0.656357     0.292386    Uiso  ? H
   C1078      1.0     0.853968     0.648595     0.335178    Uiso  ? C
   N89        1.0     0.856757     0.659787     0.316244    Uiso  ? N
   C1079      1.0     0.841195     0.673754     0.305338    Uiso  ? C
   H790       1.0     0.838643     0.668106     0.288261    Uiso  ? H
   H791       1.0     0.825136     0.671069     0.314097    Uiso  ? H
   C1080      1.0     0.847717     0.697798     0.306643    Uiso  ? C
   C1081      1.0     0.852201     0.706937     0.327509    Uiso  ? C
   C1082      1.0     0.846398     0.711857     0.289237    Uiso  ? C
   C1083      1.0     0.857256     0.728982     0.329420    Uiso  ? C
   H792       1.0     0.854487     0.696976     0.342244    Uiso  ? H
   C1084      1.0     0.850971     0.733382     0.291943    Uiso  ? C
   H793       1.0     0.843325     0.705283     0.273894    Uiso  ? H
   C1085      1.0     0.857882     0.742050     0.311410    Uiso  ? C
   H794       1.0     0.864584     0.734912     0.344190    Uiso  ? H
   H795       1.0     0.850393     0.743421     0.277535    Uiso  ? H
   C1086      1.0     0.863966     0.765061     0.314415    Uiso  ? C
   H796       1.0     0.848233     0.774894     0.313829    Uiso  ? H
   H797       1.0     0.871334     0.767991     0.330383    Uiso  ? H
   N90        1.0     0.877057     0.771962     0.296985    Uiso  ? N
   C1087      1.0     0.870807     0.783885     0.279687    Uiso  ? C
   N91        1.0     0.887646     0.791779     0.269216    Uiso  ? N
   C1088      1.0     0.108562     0.786980     0.281536    Uiso  ? C
   H798       1.0     0.124994     0.792413     0.276865    Uiso  ? H
   C1089      1.0     0.102266     0.773813     0.298321    Uiso  ? C
   H799       1.0     0.112083     0.767944     0.310773    Uiso  ? H
   N92        1.0     0.870565     0.635923     0.339497    Uiso  ? N
   C1090      1.0     0.884802     0.638309     0.323413    Uiso  ? C
   H800       1.0     0.104396     0.630305     0.321334    Uiso  ? H
   H801       1.0     0.839129     0.647791     0.344273    Uiso  ? H
   H802       1.0     0.854228     0.785188     0.274676    Uiso  ? H
   C1091      1.0     0.878856     0.368969     0.301918    Uiso  ? C
   H803       1.0     0.880489     0.370072     0.285153    Uiso  ? H
   C1092      1.0     0.872079     0.358980     0.334179    Uiso  ? C
   N93        1.0     0.872042     0.351644     0.313610    Uiso  ? N
   C1093      1.0     0.866963     0.330303     0.304805    Uiso  ? C
   H804       1.0     0.860147     0.319380     0.318175    Uiso  ? H
   H805       1.0     0.855421     0.329514     0.292025    Uiso  ? H
   C1094      1.0     0.887667     0.319426     0.297201    Uiso  ? C
   C1095      1.0     0.108084     0.316983     0.311629    Uiso  ? C
   C1096      1.0     0.889391     0.312885     0.275380    Uiso  ? C
   C1097      1.0     0.125911     0.304974     0.305718    Uiso  ? C
   H806       1.0     0.106046     0.322338     0.327818    Uiso  ? H
   C1098      1.0     0.111437     0.301756     0.269046    Uiso  ? C
   H807       1.0     0.876365     0.316312     0.264643    Uiso  ? H
   C1099      1.0     0.127942     0.297860     0.284378    Uiso  ? C
   H808       1.0     0.139325     0.303537     0.317485    Uiso  ? H
   H809       1.0     0.113923     0.296455     0.253216    Uiso  ? H
   C1100      1.0     0.147008     0.285125     0.277477    Uiso  ? C
   H810       1.0     0.151353     0.291207     0.261572    Uiso  ? H
   H811       1.0     0.160087     0.288104     0.288559    Uiso  ? H
   N94        1.0     0.141373     0.261737     0.274565    Uiso  ? N
   C1101      1.0     0.135516     0.252857     0.255607    Uiso  ? C
   N95        1.0     0.131800     0.231655     0.256994    Uiso  ? N
   C1102      1.0     0.135757     0.227133     0.278772    Uiso  ? C
   H812       1.0     0.134591     0.211304     0.286416    Uiso  ? H
   C1103      1.0     0.142471     0.245431     0.287903    Uiso  ? C
   H813       1.0     0.147589     0.246475     0.304193    Uiso  ? H
   N96        1.0     0.879089     0.379297     0.335595    Uiso  ? N
   C1104      1.0     0.883516     0.385749     0.315062    Uiso  ? C
   H814       1.0     0.889822     0.400594     0.311229    Uiso  ? H
   H815       1.0     0.867615     0.350384     0.348389    Uiso  ? H
   H816       1.0     0.134530     0.261737     0.239792    Uiso  ? H
