_chemical_name_common                  ' Atoms. Timestep: 0'
_cell_length_a                         66.302483
_cell_length_b                         66.302483
_cell_length_c                         66.302483
_cell_angle_alpha                      90.000000
_cell_angle_beta                       90.000000
_cell_angle_gamma                      90.000000
_cell_volume                           1.000000
_space_group_name_H-M_alt              'P 1'
_space_group_IT_number                 1

loop_
_space_group_symop_operation_xyz
   'x, y, z'

loop_
   _atom_site_label
   _atom_site_occupancy
   _atom_site_fract_x
   _atom_site_fract_y
   _atom_site_fract_z
   _atom_site_adp_type
   _atom_site_U_iso_or_equiv
   _atom_site_type_symbol
   C1         1.0     0.880329     0.218819     0.182969    Uiso  ? C
   C2         1.0     0.865450     0.231104     0.170299    Uiso  ? C
   C3         1.0     0.858870     0.249864     0.177822    Uiso  ? C
   H1         1.0     0.866479     0.257036     0.189914    Uiso  ? H
   C4         1.0     0.844946     0.261069     0.167908    Uiso  ? C
   H2         1.0     0.838953     0.274067     0.174511    Uiso  ? H
   C5         1.0     0.835435     0.252967     0.150462    Uiso  ? C
   H3         1.0     0.824885     0.262349     0.141237    Uiso  ? H
   C6         1.0     0.840012     0.233296     0.143903    Uiso  ? C
   C7         1.0     0.855051     0.222167     0.154119    Uiso  ? C
   H4         1.0     0.858894     0.207157     0.149201    Uiso  ? H
   C8         1.0     0.829562     0.225061     0.126059    Uiso  ? C
   C9         1.0     0.874114     0.173198     0.224612    Uiso  ? C
   C10        1.0     0.857095     0.161628     0.234163    Uiso  ? C
   C11        1.0     0.850861     0.166064     0.254138    Uiso  ? C
   H5         1.0     0.858369     0.176683     0.262212    Uiso  ? H
   C12        1.0     0.834065     0.156176     0.262332    Uiso  ? C
   H6         1.0     0.830308     0.158765     0.277500    Uiso  ? H
   C13        1.0     0.822432     0.142739     0.251348    Uiso  ? C
   H7         1.0     0.807520     0.138346     0.257858    Uiso  ? H
   C14        1.0     0.827687     0.139184     0.231332    Uiso  ? C
   C15        1.0     0.846042     0.147946     0.222700    Uiso  ? C
   H8         1.0     0.849258     0.144292     0.206638    Uiso  ? H
   C16        1.0     0.814027     0.126837     0.218009    Uiso  ? C
   C17        1.0     0.141960     0.177411     0.217050    Uiso  ? C
   C18        1.0     0.161901     0.170613     0.223439    Uiso  ? C
   C19        1.0     0.173280     0.179360     0.239146    Uiso  ? C
   H9         1.0     0.167927     0.192785     0.246695    Uiso  ? H
   C20        1.0     0.192395     0.171714     0.245786    Uiso  ? C
   H10        1.0     0.200761     0.180072     0.257942    Uiso  ? H
   C21        1.0     0.198544     0.153819     0.236798    Uiso  ? C
   H11        1.0     0.213407     0.147984     0.241562    Uiso  ? H
   C22        1.0     0.187938     0.144186     0.221062    Uiso  ? C
   C23        1.0     0.170376     0.153620     0.213563    Uiso  ? C
   H12        1.0     0.162804     0.147526     0.200772    Uiso  ? H
   C24        1.0     0.197334     0.126432     0.211511    Uiso  ? C
   C25        1.0     0.132007     0.213362     0.185253    Uiso  ? C
   C26        1.0     0.146603     0.226902     0.175596    Uiso  ? C
   C27        1.0     0.156101     0.242727     0.187379    Uiso  ? C
   H13        1.0     0.152335     0.245091     0.202340    Uiso  ? H
   C28        1.0     0.172085     0.252714     0.179390    Uiso  ? C
   H14        1.0     0.177673     0.266804     0.186311    Uiso  ? H
   C29        1.0     0.178558     0.247595     0.159985    Uiso  ? C
   H15        1.0     0.189987     0.257550     0.153344    Uiso  ? H
   C30        1.0     0.169688     0.232426     0.148011    Uiso  ? C
   C31        1.0     0.153590     0.221681     0.156678    Uiso  ? C
   H16        1.0     0.147572     0.208618     0.148885    Uiso  ? H
   C32        1.0     0.180092     0.224823     0.128941    Uiso  ? C
   C33        1.0     0.786292     0.190805     0.869558    Uiso  ? C
   C34        1.0     0.774289     0.181849     0.852730    Uiso  ? C
   C35        1.0     0.756591     0.190973     0.845014    Uiso  ? C
   H17        1.0     0.750617     0.204413     0.851812    Uiso  ? H
   C36        1.0     0.746688     0.183154     0.828651    Uiso  ? C
   H18        1.0     0.732630     0.189478     0.822596    Uiso  ? H
   C37        1.0     0.754859     0.165686     0.819836    Uiso  ? C
   H19        1.0     0.745422     0.158834     0.808687    Uiso  ? H
   C38        1.0     0.771902     0.155811     0.827110    Uiso  ? C
   C39        1.0     0.781678     0.164485     0.843946    Uiso  ? C
   H20        1.0     0.795432     0.158467     0.848077    Uiso  ? H
   C40        1.0     0.779484     0.137406     0.817412    Uiso  ? C
   C41        1.0     0.778075     0.186864     0.118256    Uiso  ? C
   C42        1.0     0.763594     0.174272     0.130516    Uiso  ? C
   C43        1.0     0.742974     0.177677     0.130489    Uiso  ? C
   H21        1.0     0.736395     0.187942     0.120758    Uiso  ? H
   C44        1.0     0.730558     0.165752     0.143130    Uiso  ? C
   H22        1.0     0.714890     0.169171     0.144827    Uiso  ? H
   C45        1.0     0.738757     0.152837     0.157774    Uiso  ? C
   H23        1.0     0.728669     0.144909     0.168578    Uiso  ? H
   C46        1.0     0.759706     0.150366     0.159399    Uiso  ? C
   C47        1.0     0.771948     0.160117     0.144309    Uiso  ? C
   H24        1.0     0.787488     0.157482     0.144291    Uiso  ? H
   C48        1.0     0.770050     0.135150     0.171804    Uiso  ? C
   C49        1.0     0.821938     0.220241     0.864505    Uiso  ? C
   C50        1.0     0.833412     0.227425     0.847436    Uiso  ? C
   C51        1.0     0.831013     0.247291     0.840999    Uiso  ? C
   H25        1.0     0.820915     0.257175     0.849515    Uiso  ? H
   C52        1.0     0.842864     0.254988     0.825010    Uiso  ? C
   H26        1.0     0.839864     0.271112     0.819440    Uiso  ? H
   C53        1.0     0.857696     0.243130     0.816297    Uiso  ? C
   H27        1.0     0.865488     0.249113     0.803619    Uiso  ? H
   C54        1.0     0.859206     0.222533     0.821255    Uiso  ? C
   C55        1.0     0.848158     0.215518     0.837253    Uiso  ? C
   H28        1.0     0.849777     0.201332     0.842891    Uiso  ? H
   C56        1.0     0.873301     0.209331     0.809515    Uiso  ? C
   C57        1.0     0.774841     0.869634     0.177842    Uiso  ? C
   C58        1.0     0.767656     0.851315     0.168344    Uiso  ? C
   C59        1.0     0.749148     0.841895     0.175226    Uiso  ? C
   H29        1.0     0.739714     0.848116     0.187011    Uiso  ? H
   C60        1.0     0.741408     0.824871     0.164991    Uiso  ? C
   H30        1.0     0.727620     0.818962     0.170080    Uiso  ? H
   C61        1.0     0.752228     0.817368     0.148014    Uiso  ? C
   H31        1.0     0.747411     0.803646     0.141015    Uiso  ? H
   C62        1.0     0.769831     0.826548     0.141220    Uiso  ? C
   C63        1.0     0.777396     0.843323     0.150681    Uiso  ? C
   H32        1.0     0.790994     0.849344     0.145410    Uiso  ? H
   C64        1.0     0.781218     0.817865     0.123375    Uiso  ? C
   C65        1.0     0.803626     0.874397     0.214816    Uiso  ? C
   C66        1.0     0.812633     0.855866     0.224096    Uiso  ? C
   C67        1.0     0.801216     0.842708     0.236912    Uiso  ? C
   H33        1.0     0.786423     0.845649     0.241822    Uiso  ? H
   C68        1.0     0.809650     0.824345     0.243906    Uiso  ? C
   H34        1.0     0.800795     0.815154     0.254415    Uiso  ? H
   C69        1.0     0.829921     0.819705     0.240041    Uiso  ? C
   H35        1.0     0.835661     0.806073     0.248342    Uiso  ? H
   C70        1.0     0.841644     0.833017     0.227219    Uiso  ? C
   C71        1.0     0.832697     0.850845     0.219199    Uiso  ? C
   H36        1.0     0.841987     0.861321     0.210033    Uiso  ? H
   C72        1.0     0.862146     0.827265     0.222445    Uiso  ? C
   C73        1.0     0.864352     0.177591     0.776205    Uiso  ? C
   C74        1.0     0.844747     0.170499     0.767842    Uiso  ? C
   C75        1.0     0.835875     0.179725     0.750693    Uiso  ? C
   H37        1.0     0.842457     0.192846     0.744292    Uiso  ? H
   C76        1.0     0.817241     0.172790     0.744031    Uiso  ? C
   H38        1.0     0.810054     0.180190     0.730785    Uiso  ? H
   C77        1.0     0.806903     0.156677     0.754215    Uiso  ? C
   H39        1.0     0.792381     0.150754     0.749834    Uiso  ? H
   C78        1.0     0.816506     0.146926     0.770376    Uiso  ? C
   C79        1.0     0.835656     0.153706     0.777389    Uiso  ? C
   H40        1.0     0.839920     0.147851     0.791656    Uiso  ? H
   C80        1.0     0.806626     0.130667     0.781475    Uiso  ? C
   C81        1.0     0.124146     0.214954     0.814101    Uiso  ? C
   C82        1.0     0.136721     0.228251     0.826455    Uiso  ? C
   C83        1.0     0.133909     0.249216     0.826805    Uiso  ? C
   H41        1.0     0.123927     0.256610     0.817076    Uiso  ? H
   C84        1.0     0.146315     0.260905     0.839581    Uiso  ? C
   H42        1.0     0.146248     0.277317     0.839612    Uiso  ? H
   C85        1.0     0.159647     0.252275     0.852388    Uiso  ? C
   H43        1.0     0.168268     0.261591     0.863238    Uiso  ? H
   C86        1.0     0.162404     0.231328     0.852872    Uiso  ? C
   C87        1.0     0.150849     0.219759     0.839989    Uiso  ? C
   H44        1.0     0.152067     0.203666     0.841571    Uiso  ? H
   C88        1.0     0.175837     0.222107     0.867807    Uiso  ? C
   C89        1.0     0.217265     0.191377     0.126362    Uiso  ? C
   C90        1.0     0.227597     0.183004     0.144435    Uiso  ? C
   C91        1.0     0.238182     0.196132     0.157494    Uiso  ? C
   H45        1.0     0.239108     0.213067     0.153689    Uiso  ? H
   C92        1.0     0.246100     0.189411     0.175548    Uiso  ? C
   H46        1.0     0.253696     0.200437     0.184102    Uiso  ? H
   C93        1.0     0.244806     0.168791     0.181190    Uiso  ? C
   H47        1.0     0.251451     0.164497     0.195308    Uiso  ? H
   C94        1.0     0.232555     0.155318     0.168889    Uiso  ? C
   C95        1.0     0.223874     0.162834     0.150484    Uiso  ? C
   H48        1.0     0.213929     0.153149     0.141178    Uiso  ? H
   C96        1.0     0.228501     0.134229     0.175686    Uiso  ? C
   O1         1.0     0.890048     0.204206     0.174804    Uiso  ? O
   O2         1.0     0.882234     0.221753     0.202052    Uiso  ? O
   O3         1.0     0.874700     0.173773     0.205265    Uiso  ? O
   O4         1.0     0.884624     0.185295     0.235118    Uiso  ? O
   O5         1.0     0.131023     0.166792     0.205679    Uiso  ? O
   O6         1.0     0.135515     0.195072     0.222182    Uiso  ? O
   O7         1.0     0.118702     0.202927     0.175001    Uiso  ? O
   O8         1.0     0.131632     0.213780     0.204510    Uiso  ? O
   O9         1.0     0.805036     0.185600     0.870632    Uiso  ? O
   O10        1.0     0.778196     0.203382     0.881987    Uiso  ? O
   O11        1.0     0.796047     0.180945     0.115845    Uiso  ? O
   O12        1.0     0.773648     0.204159     0.111254    Uiso  ? O
   O13        1.0     0.838138     0.211779     0.114933    Uiso  ? O
   O14        1.0     0.811458     0.229365     0.123492    Uiso  ? O
   O15        1.0     0.823400     0.201625     0.869304    Uiso  ? O
   O16        1.0     0.810544     0.232114     0.875117    Uiso  ? O
   O17        1.0     0.789482     0.878067     0.169576    Uiso  ? O
   O18        1.0     0.768216     0.877162     0.193784    Uiso  ? O
   O19        1.0     0.814594     0.886744     0.204690    Uiso  ? O
   O20        1.0     0.784651     0.876346     0.214336    Uiso  ? O
   O21        1.0     0.822134     0.114583     0.205088    Uiso  ? O
   O22        1.0     0.795046     0.129800     0.218275    Uiso  ? O
   O23        1.0     0.789180     0.134462     0.172832    Uiso  ? O
   O24        1.0     0.759717     0.123979     0.183362    Uiso  ? O
   O25        1.0     0.869349     0.172138     0.794573    Uiso  ? O
   O26        1.0     0.873881     0.190644     0.767379    Uiso  ? O
   O27        1.0     0.871951     0.190533     0.812681    Uiso  ? O
   O28        1.0     0.885510     0.217464     0.797787    Uiso  ? O
   O29        1.0     0.122114     0.197155     0.818566    Uiso  ? O
   O30        1.0     0.112874     0.222062     0.800230    Uiso  ? O
   O31        1.0     0.115607     0.157537     0.786528    Uiso  ? O
   O32        1.0     0.128974     0.184425     0.771205    Uiso  ? O
   O33        1.0     0.180088     0.203079     0.868000    Uiso  ? O
   O34        1.0     0.183998     0.233220     0.880903    Uiso  ? O
   O35        1.0     0.170686     0.212774     0.117526    Uiso  ? O
   O36        1.0     0.199114     0.228273     0.126762    Uiso  ? O
   O37        1.0     0.206220     0.180008     0.115357    Uiso  ? O
   O38        1.0     0.217276     0.211230     0.124237    Uiso  ? O
   O39        1.0     0.200873     0.189419     0.868782    Uiso  ? O
   O40        1.0     0.227685     0.203744     0.883262    Uiso  ? O
   O41        1.0     0.822704     0.892584     0.788900    Uiso  ? O
   O42        1.0     0.795501     0.876860     0.778210    Uiso  ? O
   O43        1.0     0.788631     0.871097     0.818688    Uiso  ? O
   O44        1.0     0.758833     0.883797     0.812331    Uiso  ? O
   O45        1.0     0.792678     0.125977     0.826062    Uiso  ? O
   O46        1.0     0.771185     0.131048     0.801139    Uiso  ? O
   O47        1.0     0.816360     0.118657     0.792583    Uiso  ? O
   O48        1.0     0.787231     0.129107     0.780581    Uiso  ? O
   O49        1.0     0.895657     0.154471     0.170164    Uiso  ? O
   O50        1.0     0.842551     0.170958     0.101327    Uiso  ? O
   O51        1.0     0.823005     0.108806     0.154107    Uiso  ? O
   O52        1.0     0.106477     0.154507     0.833067    Uiso  ? O
   O53        1.0     0.162956     0.167433     0.899539    Uiso  ? O
   O54        1.0     0.827883     0.891486     0.839429    Uiso  ? O
   Zn1        1.0     0.104851     0.177214     0.189718    Uiso  ? Zn
   Zn2        1.0     0.104922     0.209011     0.222734    Uiso  ? Zn
   Zn3        1.0     0.819607     0.190848     0.899024    Uiso  ? Zn
   Zn4        1.0     0.791735     0.226745     0.899959    Uiso  ? Zn
   Zn5        1.0     0.804608     0.107613     0.179521    Uiso  ? Zn
   Zn6        1.0     0.772684     0.109455     0.208153    Uiso  ? Zn
   Zn7        1.0     0.898119     0.172961     0.809649    Uiso  ? Zn
   Zn8        1.0     0.105139     0.204285     0.773969    Uiso  ? Zn
   Zn9        1.0     0.183418     0.189749     0.896543    Uiso  ? Zn
   Zn10       1.0     0.210918     0.227118     0.896899    Uiso  ? Zn
   Zn11       1.0     0.807519     0.896323     0.815984    Uiso  ? Zn
   Zn12       1.0     0.771034     0.897588     0.787246    Uiso  ? Zn
   C97        1.0     0.127840     0.779613     0.805421    Uiso  ? C
   C98        1.0     0.144941     0.768751     0.814599    Uiso  ? C
   C99        1.0     0.155640     0.755277     0.802694    Uiso  ? C
   H49        1.0     0.150999     0.751418     0.787256    Uiso  ? H
   C100       1.0     0.173679     0.745479     0.809438    Uiso  ? C
   H50        1.0     0.181246     0.735243     0.800452    Uiso  ? H
   C101       1.0     0.181287     0.750422     0.829327    Uiso  ? C
   H51        1.0     0.194485     0.742583     0.834515    Uiso  ? H
   C102       1.0     0.171648     0.765076     0.840684    Uiso  ? C
   C103       1.0     0.154286     0.775197     0.832443    Uiso  ? C
   H52        1.0     0.146787     0.785903     0.841885    Uiso  ? H
   C104       1.0     0.179371     0.771609     0.861309    Uiso  ? C
   C105       1.0     0.136680     0.818276     0.782712    Uiso  ? C
   C106       1.0     0.157783     0.823939     0.778460    Uiso  ? C
   C107       1.0     0.170737     0.809240     0.771727    Uiso  ? C
   H53        1.0     0.164227     0.795361     0.767367    Uiso  ? H
   C108       1.0     0.191994     0.813576     0.771172    Uiso  ? C
   H54        1.0     0.203002     0.802718     0.765145    Uiso  ? H
   C109       1.0     0.199430     0.833156     0.775162    Uiso  ? C
   H55        1.0     0.215370     0.836017     0.773139    Uiso  ? H
   C110       1.0     0.185759     0.847534     0.782567    Uiso  ? C
   C111       1.0     0.165122     0.842892     0.784600    Uiso  ? C
   H56        1.0     0.154355     0.852737     0.790580    Uiso  ? H
   C112       1.0     0.193470     0.867233     0.789344    Uiso  ? C
   C113       1.0     0.870077     0.826312     0.772932    Uiso  ? C
   C114       1.0     0.855431     0.840067     0.763640    Uiso  ? C
   C115       1.0     0.851128     0.838783     0.742781    Uiso  ? C
   H57        1.0     0.858989     0.827918     0.733699    Uiso  ? H
   C116       1.0     0.835849     0.850137     0.734519    Uiso  ? C
   H58        1.0     0.833472     0.849351     0.717512    Uiso  ? H
   C117       1.0     0.823945     0.863512     0.745802    Uiso  ? C
   H59        1.0     0.810955     0.869829     0.738689    Uiso  ? H
   C118       1.0     0.827851     0.865162     0.766108    Uiso  ? C
   C119       1.0     0.843839     0.854493     0.775300    Uiso  ? C
   H60        1.0     0.847762     0.857244     0.791191    Uiso  ? H
   C120       1.0     0.814695     0.878560     0.778104    Uiso  ? C
   C121       1.0     0.875411     0.778351     0.813355    Uiso  ? C
   C122       1.0     0.861541     0.766225     0.826393    Uiso  ? C
   C123       1.0     0.854983     0.747342     0.821027    Uiso  ? C
   H61        1.0     0.859996     0.739173     0.808397    Uiso  ? H
   C124       1.0     0.838679     0.738209     0.830630    Uiso  ? C
   H62        1.0     0.834040     0.723337     0.827125    Uiso  ? H
   C125       1.0     0.827854     0.748692     0.845292    Uiso  ? C
   H63        1.0     0.814193     0.740974     0.850916    Uiso  ? H
   C126       1.0     0.833568     0.768296     0.850703    Uiso  ? C
   C127       1.0     0.851751     0.776179     0.841485    Uiso  ? C
   H64        1.0     0.855615     0.791827     0.844925    Uiso  ? H
   C128       1.0     0.822200     0.778974     0.866134    Uiso  ? C
   C129       1.0     0.219530     0.809047     0.115700    Uiso  ? C
   C130       1.0     0.233004     0.821651     0.128414    Uiso  ? C
   C131       1.0     0.253638     0.818042     0.129116    Uiso  ? C
   H65        1.0     0.258730     0.805490     0.119691    Uiso  ? H
   C132       1.0     0.266513     0.831221     0.139532    Uiso  ? C
   H66        1.0     0.282832     0.830814     0.138324    Uiso  ? H
   C133       1.0     0.258462     0.848397     0.149293    Uiso  ? C
   H67        1.0     0.269152     0.858698     0.156343    Uiso  ? H
   C134       1.0     0.237817     0.850136     0.150897    Uiso  ? C
   C135       1.0     0.225215     0.837990     0.139163    Uiso  ? C
   H68        1.0     0.208873     0.841107     0.139632    Uiso  ? H
   C136       1.0     0.229182     0.865713     0.164855    Uiso  ? C
   C137       1.0     0.214377     0.805422     0.870001    Uiso  ? C
   C138       1.0     0.224702     0.814565     0.852243    Uiso  ? C
   C139       1.0     0.236919     0.802192     0.839583    Uiso  ? C
   H69        1.0     0.240676     0.786649     0.843964    Uiso  ? H
   C140       1.0     0.245221     0.810222     0.821481    Uiso  ? C
   H70        1.0     0.255674     0.802335     0.811276    Uiso  ? H
   C141       1.0     0.239543     0.829937     0.815714    Uiso  ? C
   H71        1.0     0.245564     0.835626     0.801367    Uiso  ? H
   C142       1.0     0.229039     0.842239     0.829141    Uiso  ? C
   C143       1.0     0.221485     0.834975     0.847501    Uiso  ? C
   H72        1.0     0.211744     0.844208     0.857513    Uiso  ? H
   C144       1.0     0.224018     0.863194     0.822970    Uiso  ? C
   C145       1.0     0.167711     0.778710     0.122909    Uiso  ? C
   C146       1.0     0.153240     0.770053     0.138377    Uiso  ? C
   C147       1.0     0.151284     0.749399     0.140872    Uiso  ? C
   H73        1.0     0.159400     0.738926     0.130606    Uiso  ? H
   C148       1.0     0.139859     0.741730     0.156126    Uiso  ? C
   H74        1.0     0.140060     0.725748     0.158500    Uiso  ? H
   C149       1.0     0.129794     0.754551     0.169444    Uiso  ? C
   H75        1.0     0.121186     0.746862     0.180991    Uiso  ? H
   C150       1.0     0.129803     0.775392     0.166126    Uiso  ? C
   C151       1.0     0.141774     0.783613     0.151085    Uiso  ? C
   H76        1.0     0.143636     0.799666     0.149836    Uiso  ? H
   C152       1.0     0.118939     0.789001     0.179971    Uiso  ? C
   C153       1.0     0.228852     0.132998     0.824400    Uiso  ? C
   C154       1.0     0.236746     0.151525     0.834042    Uiso  ? C
   C155       1.0     0.257977     0.154942     0.832497    Uiso  ? C
   H77        1.0     0.268092     0.145284     0.823605    Uiso  ? H
   C156       1.0     0.266499     0.170536     0.844518    Uiso  ? C
   H78        1.0     0.282347     0.174238     0.843749    Uiso  ? H
   C157       1.0     0.254426     0.182351     0.857249    Uiso  ? C
   H79        1.0     0.261196     0.193450     0.866885    Uiso  ? H
   C158       1.0     0.232914     0.180110     0.856662    Uiso  ? C
   C159       1.0     0.223684     0.165109     0.844323    Uiso  ? C
   H80        1.0     0.207495     0.161972     0.843699    Uiso  ? H
   C160       1.0     0.219971     0.191915     0.870001    Uiso  ? C
   C161       1.0     0.186468     0.116075     0.781469    Uiso  ? C
   C162       1.0     0.172417     0.127891     0.768905    Uiso  ? C
   C163       1.0     0.175877     0.129636     0.748614    Uiso  ? C
   H81        1.0     0.187453     0.120434     0.741464    Uiso  ? H
   C164       1.0     0.163111     0.141647     0.737249    Uiso  ? C
   H82        1.0     0.165590     0.143707     0.721512    Uiso  ? H
   C165       1.0     0.148734     0.154293     0.746057    Uiso  ? C
   H83        1.0     0.138805     0.162390     0.736864    Uiso  ? H
   C166       1.0     0.144969     0.151794     0.766459    Uiso  ? C
   C167       1.0     0.157172     0.139684     0.777961    Uiso  ? C
   H84        1.0     0.153987     0.139473     0.794583    Uiso  ? H
   C168       1.0     0.129268     0.165237     0.775456    Uiso  ? C
   C169       1.0     0.131662     0.832072     0.225432    Uiso  ? C
   C170       1.0     0.150173     0.841949     0.232991    Uiso  ? C
   C171       1.0     0.157141     0.837533     0.251917    Uiso  ? C
   H85        1.0     0.147373     0.827818     0.261601    Uiso  ? H
   C172       1.0     0.172921     0.848026     0.260063    Uiso  ? C
   H86        1.0     0.176667     0.844575     0.275055    Uiso  ? H
   C173       1.0     0.184286     0.861725     0.248771    Uiso  ? C
   H87        1.0     0.198690     0.868343     0.254396    Uiso  ? H
   C174       1.0     0.178237     0.865180     0.229089    Uiso  ? C
   C175       1.0     0.161248     0.855410     0.220586    Uiso  ? C
   H88        1.0     0.158454     0.857313     0.204805    Uiso  ? H
   C176       1.0     0.191283     0.875910     0.215019    Uiso  ? C
   C177       1.0     0.867378     0.796651     0.190275    Uiso  ? C
   C178       1.0     0.849170     0.786509     0.181913    Uiso  ? C
   C179       1.0     0.838463     0.772728     0.193827    Uiso  ? C
   H89        1.0     0.842879     0.770644     0.209374    Uiso  ? H
   C180       1.0     0.820678     0.764128     0.187247    Uiso  ? C
   H90        1.0     0.813531     0.752245     0.196246    Uiso  ? H
   C181       1.0     0.813478     0.769511     0.168103    Uiso  ? C
   H91        1.0     0.799846     0.762154     0.162637    Uiso  ? H
   C182       1.0     0.823511     0.782613     0.155036    Uiso  ? C
   C183       1.0     0.841546     0.790802     0.161908    Uiso  ? C
   H92        1.0     0.848241     0.802309     0.153481    Uiso  ? H
   C184       1.0     0.815799     0.787502     0.135205    Uiso  ? C
   C185       1.0     0.779873     0.820274     0.876873    Uiso  ? C
   C186       1.0     0.765659     0.832038     0.864968    Uiso  ? C
   C187       1.0     0.744461     0.827859     0.864662    Uiso  ? C
   H93        1.0     0.737040     0.817918     0.874666    Uiso  ? H
   C188       1.0     0.731965     0.840215     0.852560    Uiso  ? C
   H94        1.0     0.716246     0.840322     0.854239    Uiso  ? H
   C189       1.0     0.740642     0.853374     0.838710    Uiso  ? C
   H95        1.0     0.731540     0.860647     0.827872    Uiso  ? H
   C190       1.0     0.760676     0.856896     0.837664    Uiso  ? C
   C191       1.0     0.773466     0.846466     0.851288    Uiso  ? C
   H96        1.0     0.790139     0.849065     0.849987    Uiso  ? H
   C192       1.0     0.769522     0.870488     0.821670    Uiso  ? C
   O55        1.0     0.116175     0.789492     0.816540    Uiso  ? O
   O56        1.0     0.126420     0.780585     0.786119    Uiso  ? O
   O57        1.0     0.126983     0.827527     0.796803    Uiso  ? O
   O58        1.0     0.128242     0.803907     0.772757    Uiso  ? O
   O59        1.0     0.872767     0.827658     0.791796    Uiso  ? O
   O60        1.0     0.880140     0.814810     0.762013    Uiso  ? O
   O61        1.0     0.888644     0.789423     0.822445    Uiso  ? O
   O62        1.0     0.874860     0.777538     0.794254    Uiso  ? O
   O63        1.0     0.205375     0.817789     0.105500    Uiso  ? O
   O64        1.0     0.221705     0.790372     0.114110    Uiso  ? O
   O65        1.0     0.204066     0.817230     0.881268    Uiso  ? O
   O66        1.0     0.214581     0.786705     0.873280    Uiso  ? O
   O67        1.0     0.169576     0.783184     0.872853    Uiso  ? O
   O68        1.0     0.197725     0.766917     0.865866    Uiso  ? O
   O69        1.0     0.169836     0.797391     0.122084    Uiso  ? O
   O70        1.0     0.178381     0.766258     0.113075    Uiso  ? O
   O71        1.0     0.211084     0.127282     0.829046    Uiso  ? O
   O72        1.0     0.239313     0.123425     0.811049    Uiso  ? O
   O73        1.0     0.180390     0.107698     0.797652    Uiso  ? O
   O74        1.0     0.204950     0.116524     0.777772    Uiso  ? O
   O75        1.0     0.183802     0.877836     0.802631    Uiso  ? O
   O76        1.0     0.211819     0.871931     0.784897    Uiso  ? O
   O77        1.0     0.211632     0.873571     0.833301    Uiso  ? O
   O78        1.0     0.230907     0.869354     0.805794    Uiso  ? O
   O79        1.0     0.128104     0.832607     0.206796    Uiso  ? O
   O80        1.0     0.119261     0.823245     0.236720    Uiso  ? O
   O81        1.0     0.107909     0.803131     0.173453    Uiso  ? O
   O82        1.0     0.117859     0.785134     0.198644    Uiso  ? O
   O83        1.0     0.879818     0.805359     0.178562    Uiso  ? O
   O84        1.0     0.871438     0.794111     0.208893    Uiso  ? O
   O85        1.0     0.871200     0.837326     0.208238    Uiso  ? O
   O86        1.0     0.868788     0.810360     0.228301    Uiso  ? O
   O87        1.0     0.822343     0.803676     0.127687    Uiso  ? O
   O88        1.0     0.803066     0.776615     0.126384    Uiso  ? O
   O89        1.0     0.829124     0.794811     0.874268    Uiso  ? O
   O90        1.0     0.806814     0.771882     0.874559    Uiso  ? O
   O91        1.0     0.797763     0.826233     0.877963    Uiso  ? O
   O92        1.0     0.773506     0.804236     0.885593    Uiso  ? O
   O93        1.0     0.800060     0.821739     0.120678    Uiso  ? O
   O94        1.0     0.772979     0.804210     0.112695    Uiso  ? O
   O95        1.0     0.186432     0.116463     0.199540    Uiso  ? O
   O96        1.0     0.216844     0.123521     0.212948    Uiso  ? O
   O97        1.0     0.217046     0.123418     0.164480    Uiso  ? O
   O98        1.0     0.233262     0.127699     0.193086    Uiso  ? O
   O99        1.0     0.210673     0.868969     0.164976    Uiso  ? O
   O100       1.0     0.241504     0.876836     0.175330    Uiso  ? O
   O101       1.0     0.183197     0.887958     0.202505    Uiso  ? O
   O102       1.0     0.210562     0.874550     0.216222    Uiso  ? O
   O103       1.0     0.893512     0.838275     0.830852    Uiso  ? O
   O104       1.0     0.154830     0.824138     0.891338    Uiso  ? O
   O105       1.0     0.177491     0.107444     0.846732    Uiso  ? O
   O106       1.0     0.108257     0.854961     0.173794    Uiso  ? O
   O107       1.0     0.844596     0.835414     0.898799    Uiso  ? O
   O108       1.0     0.173761     0.894623     0.152053    Uiso  ? O
   Zn13       1.0     0.897144     0.817445     0.809121    Uiso  ? Zn
   Zn14       1.0     0.894028     0.789459     0.772376    Uiso  ? Zn
   Zn15       1.0     0.178646     0.804748     0.894154    Uiso  ? Zn
   Zn16       1.0     0.205560     0.769176     0.896994    Uiso  ? Zn
   Zn17       1.0     0.195845     0.101745     0.824400    Uiso  ? Zn
   Zn18       1.0     0.230803     0.101771     0.790273    Uiso  ? Zn
   Zn19       1.0     0.897232     0.829099     0.190669    Uiso  ? Zn
   Zn20       1.0     0.103035     0.798411     0.224699    Uiso  ? Zn
   Zn21       1.0     0.820512     0.815510     0.896907    Uiso  ? Zn
   Zn22       1.0     0.788611     0.778040     0.898830    Uiso  ? Zn
   Zn23       1.0     0.196877     0.895223     0.173572    Uiso  ? Zn
   Zn24       1.0     0.232662     0.892131     0.203601    Uiso  ? Zn
   H97        1.0     0.155933     0.836218     0.883331    Uiso  ? H
   H98        1.0     0.142203     0.817108     0.893219    Uiso  ? H
   H99        1.0     0.844462     0.161545     0.111441    Uiso  ? H
   H100       1.0     0.854772     0.173127     0.894347    Uiso  ? H
   H101       1.0     0.836498     0.105467     0.845301    Uiso  ? H
   H102       1.0     0.827586     0.878657     0.846264    Uiso  ? H
   H103       1.0     0.892056     0.154192     0.843367    Uiso  ? H
   H104       1.0     0.113797     0.141612     0.830766    Uiso  ? H
   H105       1.0     0.159692     0.896683     0.155009    Uiso  ? H
   H106       1.0     0.179884     0.894256     0.139304    Uiso  ? H
   H107       1.0     0.881270     0.150257     0.170436    Uiso  ? H
   H108       1.0     0.109854     0.145952     0.163675    Uiso  ? H
   H109       1.0     0.157050     0.161750     0.887106    Uiso  ? H
   H110       1.0     0.155975     0.164127     0.111507    Uiso  ? H
   H111       1.0     0.107041     0.868625     0.178949    Uiso  ? H
   H112       1.0     0.112907     0.854114     0.160306    Uiso  ? H
   H113       1.0     0.836676     0.104753     0.154116    Uiso  ? H
   H114       1.0     0.819196     0.112820     0.140423    Uiso  ? H
   H115       1.0     0.858180     0.829461     0.898463    Uiso  ? H
   H116       1.0     0.842994     0.849932     0.898350    Uiso  ? H
   H117       1.0     0.169163     0.118722     0.843942    Uiso  ? H
   H118       1.0     0.174148     0.896389     0.859078    Uiso  ? H
   H119       1.0     0.880278     0.840456     0.836132    Uiso  ? H
   H120       1.0     0.108743     0.846691     0.833337    Uiso  ? H
   C193       1.0     0.878243     0.383502     0.425852    Uiso  ? C
   C194       1.0     0.862348     0.371781     0.436639    Uiso  ? C
   C195       1.0     0.860559     0.350966     0.433547    Uiso  ? C
   H121       1.0     0.872178     0.343334     0.424353    Uiso  ? H
   C196       1.0     0.845063     0.340099     0.443482    Uiso  ? C
   H122       1.0     0.845145     0.323623     0.441283    Uiso  ? H
   C197       1.0     0.830714     0.350304     0.455990    Uiso  ? C
   H123       1.0     0.819815     0.341505     0.463958    Uiso  ? H
   C198       1.0     0.832629     0.371259     0.459483    Uiso  ? C
   C199       1.0     0.847774     0.381559     0.448723    Uiso  ? C
   H124       1.0     0.848724     0.397866     0.450233    Uiso  ? H
   C200       1.0     0.818505     0.382744     0.472346    Uiso  ? C
   C201       1.0     0.872020     0.418395     0.379860    Uiso  ? C
   C202       1.0     0.855374     0.426563     0.368948    Uiso  ? C
   C203       1.0     0.846650     0.416710     0.352247    Uiso  ? C
   H125       1.0     0.852954     0.402741     0.347238    Uiso  ? H
   C204       1.0     0.830340     0.425907     0.341096    Uiso  ? C
   H126       1.0     0.823287     0.417769     0.329776    Uiso  ? H
   C205       1.0     0.821707     0.443581     0.346604    Uiso  ? C
   H127       1.0     0.808446     0.449400     0.338223    Uiso  ? H
   C206       1.0     0.829978     0.454421     0.363631    Uiso  ? C
   C207       1.0     0.847713     0.445989     0.373611    Uiso  ? C
   H128       1.0     0.852445     0.452950     0.387369    Uiso  ? H
   C208       1.0     0.819396     0.472314     0.372600    Uiso  ? C
   C209       1.0     0.139540     0.416030     0.388529    Uiso  ? C
   C210       1.0     0.160213     0.422450     0.381740    Uiso  ? C
   C211       1.0     0.170142     0.416413     0.363752    Uiso  ? C
   H129       1.0     0.163082     0.404837     0.354132    Uiso  ? H
   C212       1.0     0.185509     0.427518     0.355506    Uiso  ? C
   H130       1.0     0.191844     0.424331     0.340140    Uiso  ? H
   C213       1.0     0.193302     0.443702     0.365539    Uiso  ? C
   H131       1.0     0.205328     0.452151     0.359765    Uiso  ? H
   C214       1.0     0.186507     0.449339     0.384252    Uiso  ? C
   C215       1.0     0.168855     0.439240     0.391544    Uiso  ? C
   H132       1.0     0.163404     0.443819     0.405157    Uiso  ? H
   C216       1.0     0.194558     0.467045     0.394272    Uiso  ? C
   C217       1.0     0.130867     0.384971     0.423870    Uiso  ? C
   C218       1.0     0.145646     0.374817     0.436960    Uiso  ? C
   C219       1.0     0.148938     0.354465     0.434177    Uiso  ? C
   H133       1.0     0.142878     0.347492     0.420795    Uiso  ? H
   C220       1.0     0.159906     0.342384     0.448394    Uiso  ? C
   H134       1.0     0.161700     0.326787     0.445028    Uiso  ? H
   C221       1.0     0.168274     0.351936     0.464850    Uiso  ? C
   H135       1.0     0.175905     0.342018     0.475158    Uiso  ? H
   C222       1.0     0.168526     0.373018     0.466920    Uiso  ? C
   C223       1.0     0.155845     0.383954     0.453079    Uiso  ? C
   H136       1.0     0.154339     0.399896     0.455238    Uiso  ? H
   C224       1.0     0.178811     0.383174     0.483326    Uiso  ? C
   C225       1.0     0.773862     0.423180     0.524744    Uiso  ? C
   C226       1.0     0.762329     0.435394     0.539213    Uiso  ? C
   C227       1.0     0.741440     0.434868     0.539911    Uiso  ? C
   H137       1.0     0.734680     0.423342     0.531825    Uiso  ? H
   C228       1.0     0.730187     0.447454     0.552996    Uiso  ? C
   H138       1.0     0.713886     0.446664     0.552600    Uiso  ? H
   C229       1.0     0.739517     0.460903     0.565571    Uiso  ? C
   H139       1.0     0.730009     0.471729     0.573712    Uiso  ? H
   C230       1.0     0.760965     0.461766     0.565731    Uiso  ? C
   C231       1.0     0.772262     0.448974     0.551939    Uiso  ? C
   H140       1.0     0.788681     0.447965     0.552876    Uiso  ? H
   C232       1.0     0.772036     0.475372     0.578742    Uiso  ? C
   C233       1.0     0.784538     0.414030     0.461878    Uiso  ? C
   C234       1.0     0.778015     0.421220     0.441568    Uiso  ? C
   C235       1.0     0.760670     0.412973     0.432788    Uiso  ? C
   H141       1.0     0.753397     0.399973     0.438310    Uiso  ? H
   C236       1.0     0.753260     0.420904     0.414864    Uiso  ? C
   H142       1.0     0.740600     0.413611     0.406809    Uiso  ? H
   C237       1.0     0.760539     0.439745     0.407893    Uiso  ? C
   H143       1.0     0.752522     0.448602     0.396672    Uiso  ? H
   C238       1.0     0.777644     0.447410     0.417071    Uiso  ? C
   C239       1.0     0.787405     0.437976     0.432251    Uiso  ? C
   H144       1.0     0.801514     0.444502     0.437393    Uiso  ? H
   C240       1.0     0.786170     0.466088     0.409005    Uiso  ? C
   C241       1.0     0.817719     0.380873     0.522770    Uiso  ? C
   C242       1.0     0.828029     0.369130     0.538033    Uiso  ? C
   C243       1.0     0.825616     0.348207     0.541004    Uiso  ? C
   H145       1.0     0.818372     0.339447     0.530305    Uiso  ? H
   C244       1.0     0.837118     0.338861     0.556085    Uiso  ? C
   H146       1.0     0.833257     0.322926     0.557942    Uiso  ? H
   C245       1.0     0.851086     0.349814     0.568346    Uiso  ? C
   H147       1.0     0.859837     0.343058     0.580283    Uiso  ? H
   C246       1.0     0.853701     0.370470     0.566221    Uiso  ? C
   C247       1.0     0.841490     0.380392     0.550645    Uiso  ? C
   H148       1.0     0.844069     0.396453     0.548469    Uiso  ? H
   C248       1.0     0.866723     0.382334     0.579630    Uiso  ? C
   C249       1.0     0.782453     0.527627     0.416351    Uiso  ? C
   C250       1.0     0.770381     0.543607     0.426460    Uiso  ? C
   C251       1.0     0.748857     0.544814     0.424811    Uiso  ? C
   H149       1.0     0.740658     0.536356     0.412890    Uiso  ? H
   C252       1.0     0.738024     0.556895     0.438794    Uiso  ? C
   H150       1.0     0.722077     0.557317     0.438156    Uiso  ? H
   C253       1.0     0.748111     0.568935     0.453505    Uiso  ? C
   H151       1.0     0.738929     0.579340     0.463215    Uiso  ? H
   C254       1.0     0.769766     0.569149     0.454104    Uiso  ? C
   C255       1.0     0.780422     0.556055     0.441029    Uiso  ? C
   H152       1.0     0.797222     0.554774     0.444100    Uiso  ? H
   C256       1.0     0.780520     0.580595     0.469978    Uiso  ? C
   C257       1.0     0.817609     0.531445     0.379980    Uiso  ? C
   C258       1.0     0.828786     0.548471     0.370052    Uiso  ? C
   C259       1.0     0.823327     0.555115     0.350358    Uiso  ? C
   H153       1.0     0.812359     0.546112     0.340665    Uiso  ? H
   C260       1.0     0.834503     0.570866     0.341706    Uiso  ? C
   H154       1.0     0.830812     0.575027     0.326236    Uiso  ? H
   C261       1.0     0.851405     0.579172     0.350850    Uiso  ? C
   H155       1.0     0.860147     0.591059     0.344006    Uiso  ? H
   C262       1.0     0.856396     0.571734     0.370513    Uiso  ? C
   C263       1.0     0.845103     0.557488     0.380086    Uiso  ? C
   H156       1.0     0.848899     0.553215     0.395259    Uiso  ? H
   C264       1.0     0.873776     0.580853     0.380772    Uiso  ? C
   C265       1.0     0.856402     0.412194     0.613619    Uiso  ? C
   C266       1.0     0.837196     0.420770     0.621893    Uiso  ? C
   C267       1.0     0.829436     0.413452     0.640489    Uiso  ? C
   H157       1.0     0.837450     0.402619     0.650222    Uiso  ? H
   C268       1.0     0.811704     0.422188     0.648433    Uiso  ? C
   H158       1.0     0.804897     0.416202     0.662555    Uiso  ? H
   C269       1.0     0.804056     0.440015     0.640070    Uiso  ? C
   H159       1.0     0.791557     0.448988     0.646872    Uiso  ? H
   C270       1.0     0.812460     0.448440     0.623161    Uiso  ? C
   C271       1.0     0.828049     0.438225     0.613570    Uiso  ? C
   H160       1.0     0.834068     0.445691     0.600302    Uiso  ? H
   C272       1.0     0.803566     0.466031     0.613610    Uiso  ? C
   C273       1.0     0.118744     0.375217     0.580564    Uiso  ? C
   C274       1.0     0.132180     0.363000     0.567141    Uiso  ? C
   C275       1.0     0.129563     0.342265     0.564780    Uiso  ? C
   H161       1.0     0.118594     0.334784     0.574091    Uiso  ? H
   C276       1.0     0.143923     0.331602     0.553871    Uiso  ? C
   H162       1.0     0.144448     0.315388     0.555224    Uiso  ? H
   C277       1.0     0.158341     0.342236     0.542348    Uiso  ? C
   H163       1.0     0.169542     0.334059     0.534905    Uiso  ? H
   C278       1.0     0.158167     0.363208     0.541745    Uiso  ? C
   C279       1.0     0.144740     0.373375     0.554205    Uiso  ? C
   H164       1.0     0.144023     0.389618     0.553450    Uiso  ? H
   C280       1.0     0.173370     0.375283     0.530352    Uiso  ? C
   C281       1.0     0.217198     0.414799     0.479925    Uiso  ? C
   C282       1.0     0.228623     0.427587     0.466012    Uiso  ? C
   C283       1.0     0.249257     0.424836     0.462600    Uiso  ? C
   H165       1.0     0.256496     0.411181     0.468181    Uiso  ? H
   C284       1.0     0.260885     0.439245     0.452873    Uiso  ? C
   H166       1.0     0.276631     0.436527     0.451349    Uiso  ? H
   C285       1.0     0.251631     0.456912     0.444979    Uiso  ? C
   H167       1.0     0.260237     0.468118     0.437551    Uiso  ? H
   C286       1.0     0.230987     0.459233     0.445896    Uiso  ? C
   C287       1.0     0.219174     0.444146     0.455680    Uiso  ? C
   H168       1.0     0.203640     0.446451     0.458802    Uiso  ? H
   C288       1.0     0.221617     0.476604     0.434307    Uiso  ? C
   O109       1.0     0.879486     0.402133     0.428983    Uiso  ? O
   O110       1.0     0.888185     0.374457     0.411869    Uiso  ? O
   O111       1.0     0.883934     0.430388     0.389009    Uiso  ? O
   O112       1.0     0.875709     0.399346     0.379768    Uiso  ? O
   O113       1.0     0.133497     0.419784     0.406507    Uiso  ? O
   O114       1.0     0.128680     0.404837     0.377721    Uiso  ? O
   O115       1.0     0.129235     0.404818     0.424283    Uiso  ? O
   O116       1.0     0.119751     0.374289     0.412530    Uiso  ? O
   O117       1.0     0.787669     0.430851     0.514426    Uiso  ? O
   O118       1.0     0.770822     0.404085     0.522286    Uiso  ? O
   O119       1.0     0.801641     0.420393     0.469048    Uiso  ? O
   O120       1.0     0.774709     0.400981     0.472066    Uiso  ? O
   O121       1.0     0.820164     0.401815     0.473266    Uiso  ? O
   O122       1.0     0.806724     0.373600     0.484761    Uiso  ? O
   O123       1.0     0.819012     0.399665     0.521189    Uiso  ? O
   O124       1.0     0.807155     0.372421     0.509512    Uiso  ? O
   O125       1.0     0.801668     0.527988     0.416854    Uiso  ? O
   O126       1.0     0.773633     0.515270     0.405230    Uiso  ? O
   O127       1.0     0.818070     0.530249     0.399476    Uiso  ? O
   O128       1.0     0.808298     0.517969     0.369234    Uiso  ? O
   O129       1.0     0.829215     0.483724     0.384870    Uiso  ? O
   O130       1.0     0.800122     0.472337     0.373534    Uiso  ? O
   O131       1.0     0.794940     0.478623     0.420262    Uiso  ? O
   O132       1.0     0.783702     0.469604     0.390018    Uiso  ? O
   O133       1.0     0.863888     0.419048     0.597449    Uiso  ? O
   O134       1.0     0.865041     0.399116     0.623730    Uiso  ? O
   O135       1.0     0.866649     0.401611     0.578754    Uiso  ? O
   O136       1.0     0.877310     0.372811     0.593060    Uiso  ? O
   O137       1.0     0.118350     0.394521     0.578437    Uiso  ? O
   O138       1.0     0.106823     0.366801     0.593604    Uiso  ? O
   O139       1.0     0.108313     0.429931     0.611377    Uiso  ? O
   O140       1.0     0.119466     0.400934     0.624771    Uiso  ? O
   O141       1.0     0.170671     0.393964     0.528435    Uiso  ? O
   O142       1.0     0.188092     0.366742     0.522076    Uiso  ? O
   O143       1.0     0.179270     0.401938     0.485183    Uiso  ? O
   O144       1.0     0.189795     0.372101     0.495575    Uiso  ? O
   O145       1.0     0.199116     0.419149     0.483494    Uiso  ? O
   O146       1.0     0.226693     0.402231     0.490472    Uiso  ? O
   O147       1.0     0.209244     0.426835     0.531138    Uiso  ? O
   O148       1.0     0.219020     0.395893     0.539427    Uiso  ? O
   O149       1.0     0.818330     0.519168     0.612794    Uiso  ? O
   O150       1.0     0.787050     0.528823     0.621597    Uiso  ? O
   O151       1.0     0.792394     0.519020     0.570300    Uiso  ? O
   O152       1.0     0.762884     0.513964     0.586366    Uiso  ? O
   O153       1.0     0.792013     0.475204     0.578511    Uiso  ? O
   O154       1.0     0.762682     0.489863     0.587820    Uiso  ? O
   O155       1.0     0.808286     0.469483     0.595304    Uiso  ? O
   O156       1.0     0.791462     0.477943     0.623170    Uiso  ? O
   O157       1.0     0.102533     0.448768     0.433291    Uiso  ? O
   O158       1.0     0.832794     0.440297     0.503050    Uiso  ? O
   O159       1.0     0.838887     0.495733     0.432806    Uiso  ? O
   O160       1.0     0.106547     0.434195     0.565917    Uiso  ? O
   O161       1.0     0.169353     0.442107     0.517844    Uiso  ? O
   O162       1.0     0.838391     0.502318     0.573379    Uiso  ? O
   Zn25       1.0     0.102192     0.421817     0.416707    Uiso  ? Zn
   Zn26       1.0     0.106655     0.385419     0.385930    Uiso  ? Zn
   Zn27       1.0     0.810609     0.418708     0.498692    Uiso  ? Zn
   Zn28       1.0     0.779729     0.385523     0.498160    Uiso  ? Zn
   Zn29       1.0     0.815889     0.499538     0.410234    Uiso  ? Zn
   Zn30       1.0     0.784400     0.499264     0.379748    Uiso  ? Zn
   Zn31       1.0     0.894098     0.415273     0.587641    Uiso  ? Zn
   Zn32       1.0     0.891158     0.383094     0.619498    Uiso  ? Zn
   Zn33       1.0     0.185876     0.415134     0.512782    Uiso  ? Zn
   Zn34       1.0     0.215630     0.381550     0.511407    Uiso  ? Zn
   Zn35       1.0     0.810351     0.500295     0.587737    Uiso  ? Zn
   Zn36       1.0     0.773413     0.503284     0.613644    Uiso  ? Zn
   C289       1.0     0.126957     0.619576     0.587859    Uiso  ? C
   C290       1.0     0.142317     0.630678     0.575896    Uiso  ? C
   C291       1.0     0.145808     0.651863     0.578716    Uiso  ? C
   H169       1.0     0.136785     0.660618     0.590529    Uiso  ? H
   C292       1.0     0.162083     0.661586     0.569082    Uiso  ? C
   H170       1.0     0.163605     0.678773     0.570029    Uiso  ? H
   C293       1.0     0.174994     0.649638     0.556756    Uiso  ? C
   H171       1.0     0.188313     0.657181     0.550273    Uiso  ? H
   C294       1.0     0.169862     0.629375     0.551432    Uiso  ? C
   C295       1.0     0.154119     0.619911     0.562070    Uiso  ? C
   H172       1.0     0.151622     0.604083     0.558969    Uiso  ? H
   C296       1.0     0.183653     0.618182     0.537121    Uiso  ? C
   C297       1.0     0.125394     0.584429     0.625190    Uiso  ? C
   C298       1.0     0.142449     0.575080     0.635713    Uiso  ? C
   C299       1.0     0.146689     0.580202     0.656036    Uiso  ? C
   H173       1.0     0.140836     0.592978     0.663585    Uiso  ? H
   C300       1.0     0.162324     0.570483     0.666255    Uiso  ? C
   H174       1.0     0.165781     0.576172     0.681535    Uiso  ? H
   C301       1.0     0.173366     0.555598     0.656807    Uiso  ? C
   H175       1.0     0.184688     0.547698     0.665427    Uiso  ? H
   C302       1.0     0.169024     0.549886     0.636998    Uiso  ? C
   C303       1.0     0.154430     0.560314     0.626211    Uiso  ? C
   H176       1.0     0.150972     0.557085     0.610673    Uiso  ? H
   C304       1.0     0.179682     0.532728     0.627369    Uiso  ? C
   C305       1.0     0.859342     0.585390     0.621078    Uiso  ? C
   C306       1.0     0.839403     0.576983     0.628512    Uiso  ? C
   C307       1.0     0.827709     0.589539     0.641060    Uiso  ? C
   H177       1.0     0.832842     0.604454     0.643390    Uiso  ? H
   C308       1.0     0.810012     0.582604     0.648100    Uiso  ? C
   H178       1.0     0.801121     0.593129     0.656790    Uiso  ? H
   C309       1.0     0.803118     0.563567     0.643397    Uiso  ? C
   H179       1.0     0.787557     0.559693     0.647460    Uiso  ? H
   C310       1.0     0.814476     0.550322     0.631719    Uiso  ? C
   C311       1.0     0.833183     0.557714     0.624197    Uiso  ? C
   H180       1.0     0.842229     0.547131     0.615397    Uiso  ? H
   C312       1.0     0.806092     0.530908     0.622694    Uiso  ? C
   C313       1.0     0.864565     0.618496     0.585105    Uiso  ? C
   C314       1.0     0.846766     0.626782     0.574350    Uiso  ? C
   C315       1.0     0.837739     0.644071     0.582012    Uiso  ? C
   H181       1.0     0.843333     0.651286     0.595410    Uiso  ? H
   C316       1.0     0.822598     0.654421     0.570751    Uiso  ? C
   H182       1.0     0.817101     0.668385     0.576866    Uiso  ? H
   C317       1.0     0.814607     0.644786     0.554021    Uiso  ? C
   H183       1.0     0.802392     0.652734     0.546953    Uiso  ? H
   C318       1.0     0.823414     0.626919     0.546401    Uiso  ? C
   C319       1.0     0.840213     0.619149     0.555652    Uiso  ? C
   H184       1.0     0.846805     0.605097     0.550678    Uiso  ? H
   C320       1.0     0.814781     0.618086     0.528712    Uiso  ? C
   C321       1.0     0.224073     0.575291     0.489331    Uiso  ? C
   C322       1.0     0.235464     0.559961     0.478051    Uiso  ? C
   C323       1.0     0.256011     0.555359     0.480117    Uiso  ? C
   H185       1.0     0.264682     0.563981     0.491724    Uiso  ? H
   C324       1.0     0.265562     0.541683     0.468027    Uiso  ? C
   H186       1.0     0.281845     0.538669     0.468900    Uiso  ? H
   C325       1.0     0.255101     0.530474     0.454273    Uiso  ? C
   H187       1.0     0.261747     0.518546     0.446111    Uiso  ? H
   C326       1.0     0.234422     0.534695     0.451137    Uiso  ? C
   C327       1.0     0.224683     0.549064     0.462633    Uiso  ? C
   H188       1.0     0.209981     0.553970     0.458570    Uiso  ? H
   C328       1.0     0.224020     0.525098     0.434485    Uiso  ? C
   C329       1.0     0.218141     0.581880     0.536395    Uiso  ? C
   C330       1.0     0.228123     0.568745     0.551447    Uiso  ? C
   C331       1.0     0.249160     0.566275     0.550978    Uiso  ? C
   H189       1.0     0.259036     0.573310     0.540131    Uiso  ? H
   C332       1.0     0.257641     0.553697     0.565307    Uiso  ? C
   H190       1.0     0.273884     0.551470     0.565435    Uiso  ? H
   C333       1.0     0.245755     0.540604     0.577469    Uiso  ? C
   H191       1.0     0.253531     0.529646     0.587457    Uiso  ? H
   C334       1.0     0.224887     0.542244     0.577305    Uiso  ? C
   C335       1.0     0.216062     0.557166     0.564387    Uiso  ? C
   H192       1.0     0.199427     0.557753     0.563550    Uiso  ? H
   C336       1.0     0.212883     0.528961     0.591108    Uiso  ? C
   C337       1.0     0.187732     0.618425     0.475115    Uiso  ? C
   C338       1.0     0.178563     0.628879     0.457967    Uiso  ? C
   C339       1.0     0.186778     0.646572     0.449101    Uiso  ? C
   H193       1.0     0.200281     0.653721     0.454879    Uiso  ? H
   C340       1.0     0.177694     0.655096     0.431051    Uiso  ? C
   H194       1.0     0.183437     0.668414     0.423473    Uiso  ? H
   C341       1.0     0.162975     0.644780     0.421069    Uiso  ? C
   H195       1.0     0.157290     0.650792     0.407658    Uiso  ? H
   C342       1.0     0.154065     0.627265     0.429060    Uiso  ? C
   C343       1.0     0.162407     0.619119     0.448376    Uiso  ? C
   H196       1.0     0.157157     0.605569     0.453872    Uiso  ? H
   C344       1.0     0.137374     0.617033     0.417920    Uiso  ? C
   C345       1.0     0.212969     0.468212     0.597737    Uiso  ? C
   C346       1.0     0.222799     0.450075     0.589721    Uiso  ? C
   C347       1.0     0.237917     0.439533     0.600714    Uiso  ? C
   H197       1.0     0.242187     0.445979     0.615241    Uiso  ? H
   C348       1.0     0.247695     0.422992     0.592461    Uiso  ? C
   H198       1.0     0.259279     0.415529     0.600933    Uiso  ? H
   C349       1.0     0.242371     0.414505     0.573911    Uiso  ? C
   H199       1.0     0.250092     0.401009     0.567469    Uiso  ? H
   C350       1.0     0.226784     0.423969     0.563252    Uiso  ? C
   C351       1.0     0.218520     0.442172     0.570175    Uiso  ? C
   H200       1.0     0.206137     0.448368     0.562710    Uiso  ? H
   C352       1.0     0.217719     0.415042     0.544007    Uiso  ? C
   C353       1.0     0.170199     0.475465     0.625734    Uiso  ? C
   C354       1.0     0.158452     0.460034     0.636042    Uiso  ? C
   C355       1.0     0.165943     0.452212     0.654251    Uiso  ? C
   H201       1.0     0.178872     0.460399     0.662039    Uiso  ? H
   C356       1.0     0.158569     0.435108     0.662811    Uiso  ? C
   H202       1.0     0.166074     0.429949     0.676102    Uiso  ? H
   C357       1.0     0.142195     0.424859     0.653462    Uiso  ? C
   H203       1.0     0.137704     0.409553     0.657631    Uiso  ? H
   C358       1.0     0.135296     0.431507     0.634192    Uiso  ? C
   C359       1.0     0.144059     0.448706     0.625623    Uiso  ? C
   H204       1.0     0.139112     0.455111     0.611297    Uiso  ? H
   C360       1.0     0.119932     0.420271     0.623311    Uiso  ? C
   C361       1.0     0.139283     0.582986     0.380190    Uiso  ? C
   C362       1.0     0.155774     0.572213     0.370163    Uiso  ? C
   C363       1.0     0.168510     0.580766     0.355729    Uiso  ? C
   H205       1.0     0.164716     0.595067     0.350399    Uiso  ? H
   C364       1.0     0.185634     0.571665     0.348389    Uiso  ? C
   H206       1.0     0.195967     0.578454     0.336923    Uiso  ? H
   C365       1.0     0.192466     0.554148     0.357860    Uiso  ? C
   H207       1.0     0.207107     0.546820     0.354529    Uiso  ? H
   C366       1.0     0.180518     0.544432     0.372077    Uiso  ? C
   C367       1.0     0.161084     0.552154     0.376519    Uiso  ? C
   H208       1.0     0.153320     0.544274     0.388223    Uiso  ? H
   C368       1.0     0.188994     0.529173     0.385194    Uiso  ? C
   C369       1.0     0.875552     0.615503     0.415913    Uiso  ? C
   C370       1.0     0.859471     0.627067     0.426371    Uiso  ? C
   C371       1.0     0.855194     0.647821     0.421608    Uiso  ? C
   H209       1.0     0.865968     0.656398     0.413490    Uiso  ? H
   C372       1.0     0.838400     0.657152     0.429788    Uiso  ? C
   H210       1.0     0.835438     0.673180     0.425556    Uiso  ? H
   C373       1.0     0.825572     0.647145     0.442053    Uiso  ? C
   H211       1.0     0.813430     0.655737     0.447663    Uiso  ? H
   C374       1.0     0.829355     0.626770     0.447059    Uiso  ? C
   C375       1.0     0.846090     0.617065     0.438511    Uiso  ? C
   H212       1.0     0.850099     0.601192     0.444239    Uiso  ? H
   C376       1.0     0.817025     0.615455     0.463065    Uiso  ? C
   C377       1.0     0.780941     0.571606     0.515818    Uiso  ? C
   C378       1.0     0.768015     0.557747     0.528098    Uiso  ? C
   C379       1.0     0.747446     0.557144     0.524498    Uiso  ? C
   H213       1.0     0.739972     0.566146     0.513458    Uiso  ? H
   C380       1.0     0.735539     0.544835     0.536615    Uiso  ? C
   H214       1.0     0.719543     0.544568     0.534165    Uiso  ? H
   C381       1.0     0.743429     0.533072     0.552526    Uiso  ? C
   H215       1.0     0.732849     0.523478     0.561065    Uiso  ? H
   C382       1.0     0.764044     0.534449     0.556586    Uiso  ? C
   C383       1.0     0.776279     0.546310     0.543674    Uiso  ? C
   H216       1.0     0.791779     0.548337     0.547547    Uiso  ? H
   C384       1.0     0.773592     0.523474     0.572914    Uiso  ? C
   O163       1.0     0.125767     0.600184     0.588951    Uiso  ? O
   O164       1.0     0.114209     0.629898     0.597980    Uiso  ? O
   O165       1.0     0.124483     0.583401     0.605795    Uiso  ? O
   O166       1.0     0.112756     0.594471     0.635031    Uiso  ? O
   O167       1.0     0.872258     0.573986     0.611430    Uiso  ? O
   O168       1.0     0.862388     0.604412     0.621318    Uiso  ? O
   O169       1.0     0.875091     0.604094     0.577005    Uiso  ? O
   O170       1.0     0.864747     0.621289     0.604711    Uiso  ? O
   O171       1.0     0.205113     0.572891     0.490249    Uiso  ? O
   O172       1.0     0.232786     0.588598     0.499947    Uiso  ? O
   O173       1.0     0.199519     0.579093     0.534257    Uiso  ? O
   O174       1.0     0.228577     0.594219     0.525080    Uiso  ? O
   O175       1.0     0.182658     0.598991     0.536281    Uiso  ? O
   O176       1.0     0.196611     0.628120     0.525862    Uiso  ? O
   O177       1.0     0.175684     0.610534     0.487623    Uiso  ? O
   O178       1.0     0.206521     0.618546     0.477761    Uiso  ? O
   O179       1.0     0.204475     0.480192     0.585770    Uiso  ? O
   O180       1.0     0.212119     0.471809     0.616056    Uiso  ? O
   O181       1.0     0.161929     0.486008     0.610754    Uiso  ? O
   O182       1.0     0.189106     0.477785     0.629793    Uiso  ? O
   O183       1.0     0.178039     0.530478     0.608219    Uiso  ? O
   O184       1.0     0.190423     0.520349     0.638476    Uiso  ? O
   O185       1.0     0.193618     0.528134     0.591018    Uiso  ? O
   O186       1.0     0.222086     0.516534     0.602400    Uiso  ? O
   O187       1.0     0.126163     0.572372     0.389392    Uiso  ? O
   O188       1.0     0.137024     0.602406     0.379198    Uiso  ? O
   O189       1.0     0.124798     0.605487     0.426404    Uiso  ? O
   O190       1.0     0.136398     0.619707     0.398883    Uiso  ? O
   O191       1.0     0.875103     0.595921     0.416385    Uiso  ? O
   O192       1.0     0.888366     0.625410     0.406044    Uiso  ? O
   O193       1.0     0.875139     0.579351     0.400029    Uiso  ? O
   O194       1.0     0.886839     0.591789     0.371147    Uiso  ? O
   O195       1.0     0.819150     0.596586     0.467063    Uiso  ? O
   O196       1.0     0.805490     0.625529     0.474845    Uiso  ? O
   O197       1.0     0.826121     0.609947     0.515474    Uiso  ? O
   O198       1.0     0.795678     0.618417     0.526204    Uiso  ? O
   O199       1.0     0.800012     0.568983     0.514209    Uiso  ? O
   O200       1.0     0.773488     0.587699     0.508191    Uiso  ? O
   O201       1.0     0.799908     0.579788     0.470998    Uiso  ? O
   O202       1.0     0.770427     0.592381     0.481934    Uiso  ? O
   O203       1.0     0.187554     0.472347     0.411792    Uiso  ? O
   O204       1.0     0.207436     0.478049     0.385517    Uiso  ? O
   O205       1.0     0.201999     0.477139     0.432161    Uiso  ? O
   O206       1.0     0.232795     0.488386     0.423945    Uiso  ? O
   O207       1.0     0.204895     0.524794     0.433416    Uiso  ? O
   O208       1.0     0.234086     0.513945     0.422780    Uiso  ? O
   O209       1.0     0.178399     0.515632     0.392269    Uiso  ? O
   O210       1.0     0.207449     0.529394     0.388957    Uiso  ? O
   O211       1.0     0.892770     0.560533     0.571564    Uiso  ? O
   O212       1.0     0.156199     0.570001     0.503499    Uiso  ? O
   O213       1.0     0.165371     0.497274     0.565227    Uiso  ? O
   O214       1.0     0.110333     0.559331     0.433191    Uiso  ? O
   O215       1.0     0.841872     0.567778     0.499122    Uiso  ? O
   O216       1.0     0.159972     0.509275     0.437305    Uiso  ? O
   Zn37       1.0     0.893193     0.583627     0.591280    Uiso  ? Zn
   Zn38       1.0     0.891626     0.618031     0.621020    Uiso  ? Zn
   Zn39       1.0     0.182665     0.587669     0.507190    Uiso  ? Zn
   Zn40       1.0     0.218422     0.616965     0.505553    Uiso  ? Zn
   Zn41       1.0     0.180845     0.500889     0.591407    Uiso  ? Zn
   Zn42       1.0     0.211965     0.500446     0.626623    Uiso  ? Zn
   Zn43       1.0     0.107465     0.582589     0.412899    Uiso  ? Zn
   Zn44       1.0     0.108393     0.616144     0.382158    Uiso  ? Zn
   Zn45       1.0     0.817060     0.586865     0.496822    Uiso  ? Zn
   Zn46       1.0     0.784141     0.617040     0.497836    Uiso  ? Zn
   Zn47       1.0     0.186030     0.503211     0.420498    Uiso  ? Zn
   Zn48       1.0     0.223422     0.502950     0.394817    Uiso  ? Zn
   H217       1.0     0.152557     0.557667     0.511223    Uiso  ? H
   H218       1.0     0.147771     0.572639     0.492121    Uiso  ? H
   H219       1.0     0.840575     0.438172     0.514719    Uiso  ? H
   H220       1.0     0.833543     0.453375     0.496315    Uiso  ? H
   H221       1.0     0.842183     0.508895     0.560803    Uiso  ? H
   H222       1.0     0.847053     0.491228     0.576327    Uiso  ? H
   H223       1.0     0.108806     0.429725     0.552116    Uiso  ? H
   H224       1.0     0.108757     0.447133     0.571379    Uiso  ? H
   H225       1.0     0.155234     0.501108     0.448257    Uiso  ? H
   H226       1.0     0.155935     0.523187     0.436108    Uiso  ? H
   H227       1.0     0.107327     0.449742     0.446230    Uiso  ? H
   H228       1.0     0.102491     0.461230     0.426431    Uiso  ? H
   H229       1.0     0.173247     0.449744     0.529254    Uiso  ? H
   H230       1.0     0.156368     0.446243     0.512828    Uiso  ? H
   H231       1.0     0.108714     0.560613     0.448092    Uiso  ? H
   H232       1.0     0.115878     0.547521     0.427894    Uiso  ? H
   H233       1.0     0.839196     0.484416     0.441479    Uiso  ? H
   H234       1.0     0.852635     0.501058     0.430190    Uiso  ? H
   H235       1.0     0.853012     0.571796     0.490159    Uiso  ? H
   H236       1.0     0.843427     0.559071     0.511487    Uiso  ? H
   H237       1.0     0.161006     0.483064     0.562174    Uiso  ? H
   H238       1.0     0.169272     0.507135     0.555845    Uiso  ? H
   H239       1.0     0.105665     0.549826     0.573085    Uiso  ? H
   H240       1.0     0.883178     0.560822     0.561111    Uiso  ? H
   C385       1.0     0.617048     0.870597     0.410181    Uiso  ? C
   C386       1.0     0.626234     0.852268     0.418377    Uiso  ? C
   C387       1.0     0.638008     0.838426     0.407225    Uiso  ? C
   H241       1.0     0.641189     0.841611     0.391909    Uiso  ? H
   C388       1.0     0.643584     0.819390     0.415532    Uiso  ? C
   H242       1.0     0.652215     0.808712     0.406711    Uiso  ? H
   C389       1.0     0.639152     0.815366     0.435589    Uiso  ? C
   H243       1.0     0.644597     0.801287     0.441809    Uiso  ? H
   C390       1.0     0.627420     0.829091     0.447411    Uiso  ? C
   C391       1.0     0.621489     0.847091     0.438381    Uiso  ? C
   H244       1.0     0.614016     0.858336     0.447356    Uiso  ? H
   C392       1.0     0.622150     0.823191     0.468135    Uiso  ? C
   C393       1.0     0.581633     0.859598     0.379730    Uiso  ? C
   C394       1.0     0.574034     0.839474     0.373151    Uiso  ? C
   C395       1.0     0.584348     0.826470     0.360857    Uiso  ? C
   H245       1.0     0.598192     0.831850     0.353847    Uiso  ? H
   C396       1.0     0.576545     0.808220     0.354794    Uiso  ? C
   H246       1.0     0.584690     0.798166     0.344440    Uiso  ? H
   C397       1.0     0.556168     0.802373     0.360584    Uiso  ? C
   H247       1.0     0.550528     0.788007     0.357271    Uiso  ? H
   C398       1.0     0.546262     0.815173     0.373934    Uiso  ? C
   C399       1.0     0.554809     0.833162     0.380111    Uiso  ? C
   H248       1.0     0.547483     0.840356     0.392950    Uiso  ? H
   C400       1.0     0.527360     0.808631     0.384086    Uiso  ? C
   C401       1.0     0.572698     0.130158     0.374965    Uiso  ? C
   C402       1.0     0.557901     0.145106     0.365917    Uiso  ? C
   C403       1.0     0.559103     0.150268     0.345292    Uiso  ? C
   H249       1.0     0.567939     0.142067     0.334232    Uiso  ? H
   C404       1.0     0.549402     0.167764     0.338305    Uiso  ? C
   H250       1.0     0.551132     0.171723     0.322613    Uiso  ? H
   C405       1.0     0.538055     0.180465     0.352802    Uiso  ? C
   H251       1.0     0.532096     0.195169     0.347267    Uiso  ? H
   C406       1.0     0.535033     0.173243     0.372410    Uiso  ? C
   C407       1.0     0.543838     0.154711     0.378564    Uiso  ? C
   H252       1.0     0.539624     0.149297     0.394194    Uiso  ? H
   C408       1.0     0.522419     0.184151     0.386665    Uiso  ? C
   C409       1.0     0.620499     0.122875     0.412314    Uiso  ? C
   C410       1.0     0.633474     0.138294     0.423065    Uiso  ? C
   C411       1.0     0.652968     0.142304     0.415979    Uiso  ? C
   H253       1.0     0.659419     0.133524     0.403353    Uiso  ? H
   C412       1.0     0.665332     0.157101     0.424151    Uiso  ? C
   H254       1.0     0.681012     0.158875     0.419155    Uiso  ? H
   C413       1.0     0.657075     0.169028     0.439494    Uiso  ? C
   H255       1.0     0.666891     0.182231     0.444120    Uiso  ? H
   C414       1.0     0.637763     0.165815     0.447393    Uiso  ? C
   C415       1.0     0.626323     0.149219     0.440278    Uiso  ? C
   H256       1.0     0.611223     0.145625     0.446165    Uiso  ? H
   C416       1.0     0.629690     0.178369     0.463525    Uiso  ? C
   C417       1.0     0.586553     0.782191     0.520814    Uiso  ? C
   C418       1.0     0.574651     0.768679     0.534706    Uiso  ? C
   C419       1.0     0.581266     0.749823     0.539024    Uiso  ? C
   H257       1.0     0.594840     0.743791     0.534187    Uiso  ? H
   C420       1.0     0.571055     0.737911     0.553744    Uiso  ? C
   H258       1.0     0.576624     0.722747     0.555942    Uiso  ? H
   C421       1.0     0.552732     0.743926     0.562038    Uiso  ? C
   H259       1.0     0.545590     0.733590     0.572602    Uiso  ? H
   C422       1.0     0.547097     0.764260     0.558817    Uiso  ? C
   C423       1.0     0.558133     0.777181     0.545519    Uiso  ? C
   H260       1.0     0.553441     0.792655     0.540781    Uiso  ? H
   C424       1.0     0.529392     0.773268     0.570240    Uiso  ? C
   C425       1.0     0.591521     0.788943     0.473417    Uiso  ? C
   C426       1.0     0.581830     0.777328     0.456033    Uiso  ? C
   C427       1.0     0.591868     0.761071     0.446159    Uiso  ? C
   H261       1.0     0.606591     0.755393     0.450519    Uiso  ? H
   C428       1.0     0.582701     0.751213     0.430168    Uiso  ? C
   H262       1.0     0.591311     0.739120     0.424323    Uiso  ? H
   C429       1.0     0.563742     0.757857     0.423576    Uiso  ? C
   H263       1.0     0.555750     0.748903     0.411775    Uiso  ? H
   C430       1.0     0.553263     0.773997     0.432327    Uiso  ? C
   C431       1.0     0.562323     0.783755     0.449112    Uiso  ? C
   H264       1.0     0.554088     0.795817     0.456913    Uiso  ? H
   C432       1.0     0.533264     0.780657     0.424268    Uiso  ? C
   C433       1.0     0.627501     0.829618     0.530807    Uiso  ? C
   C434       1.0     0.636297     0.843537     0.545404    Uiso  ? C
   C435       1.0     0.657096     0.842705     0.550196    Uiso  ? C
   H265       1.0     0.668310     0.833044     0.542297    Uiso  ? H
   C436       1.0     0.665141     0.854104     0.566682    Uiso  ? C
   H266       1.0     0.681059     0.851816     0.571220    Uiso  ? H
   C437       1.0     0.653248     0.866841     0.578314    Uiso  ? C
   H267       1.0     0.657377     0.874409     0.591600    Uiso  ? H
   C438       1.0     0.632393     0.867931     0.573400    Uiso  ? C
   C439       1.0     0.624057     0.856528     0.557612    Uiso  ? C
   H268       1.0     0.607580     0.857027     0.554950    Uiso  ? H
   C440       1.0     0.617772     0.878641     0.585929    Uiso  ? C
   C441       1.0     0.470991     0.772998     0.427422    Uiso  ? C
   C442       1.0     0.452911     0.765276     0.437621    Uiso  ? C
   C443       1.0     0.443587     0.747395     0.430039    Uiso  ? C
   H269       1.0     0.450505     0.737356     0.419232    Uiso  ? H
   C444       1.0     0.423731     0.743585     0.434195    Uiso  ? C
   H270       1.0     0.414591     0.732813     0.425890    Uiso  ? H
   C445       1.0     0.414049     0.754595     0.448717    Uiso  ? C
   H271       1.0     0.398451     0.752290     0.451513    Uiso  ? H
   C446       1.0     0.423185     0.771781     0.457991    Uiso  ? C
   C447       1.0     0.442686     0.777181     0.451940    Uiso  ? C
   H272       1.0     0.450129     0.791862     0.456917    Uiso  ? H
   C448       1.0     0.413102     0.783915     0.474040    Uiso  ? C
   C449       1.0     0.479139     0.814624     0.379570    Uiso  ? C
   C450       1.0     0.466126     0.825630     0.365785    Uiso  ? C
   C451       1.0     0.459277     0.817099     0.348125    Uiso  ? C
   H273       1.0     0.465536     0.803113     0.342677    Uiso  ? H
   C452       1.0     0.442988     0.825342     0.337250    Uiso  ? C
   H274       1.0     0.437864     0.818137     0.323341    Uiso  ? H
   C453       1.0     0.433932     0.843483     0.344977    Uiso  ? C
   H275       1.0     0.421002     0.849620     0.337700    Uiso  ? H
   C454       1.0     0.440842     0.852511     0.362925    Uiso  ? C
   C455       1.0     0.457571     0.844343     0.372168    Uiso  ? C
   H276       1.0     0.463326     0.850383     0.386164    Uiso  ? H
   C456       1.0     0.429607     0.869268     0.373106    Uiso  ? C
   C457       1.0     0.569875     0.870314     0.625292    Uiso  ? C
   C458       1.0     0.558350     0.853950     0.634548    Uiso  ? C
   C459       1.0     0.563606     0.845747     0.652923    Uiso  ? C
   H277       1.0     0.574107     0.853170     0.662982    Uiso  ? H
   C460       1.0     0.553818     0.829185     0.660894    Uiso  ? C
   H278       1.0     0.556515     0.824732     0.676560    Uiso  ? H
   C461       1.0     0.540005     0.819051     0.648978    Uiso  ? C
   H279       1.0     0.530826     0.806947     0.656217    Uiso  ? H
   C462       1.0     0.534696     0.825571     0.629445    Uiso  ? C
   C463       1.0     0.543722     0.843976     0.622743    Uiso  ? C
   H280       1.0     0.540895     0.848940     0.607225    Uiso  ? H
   C464       1.0     0.519985     0.814552     0.616303    Uiso  ? C
   C465       1.0     0.613553     0.129238     0.587583    Uiso  ? C
   C466       1.0     0.625183     0.144913     0.576721    Uiso  ? C
   C467       1.0     0.645238     0.150170     0.582864    Uiso  ? C
   H281       1.0     0.650363     0.143120     0.597213    Uiso  ? H
   C468       1.0     0.656757     0.163175     0.571700    Uiso  ? C
   H282       1.0     0.673215     0.166183     0.575475    Uiso  ? H
   C469       1.0     0.649682     0.171993     0.554028    Uiso  ? C
   H283       1.0     0.659487     0.180293     0.544022    Uiso  ? H
   C470       1.0     0.629954     0.166440     0.547431    Uiso  ? C
   C471       1.0     0.617392     0.153932     0.559174    Uiso  ? C
   H284       1.0     0.601683     0.151189     0.554387    Uiso  ? H
   C472       1.0     0.622758     0.176156     0.528557    Uiso  ? C
   C473       1.0     0.588322     0.219191     0.475155    Uiso  ? C
   C474       1.0     0.573515     0.232410     0.464902    Uiso  ? C
   C475       1.0     0.573944     0.253842     0.467534    Uiso  ? C
   H285       1.0     0.585453     0.262698     0.475395    Uiso  ? H
   C476       1.0     0.559068     0.265364     0.458326    Uiso  ? C
   H286       1.0     0.559333     0.281594     0.459069    Uiso  ? H
   C477       1.0     0.543054     0.255865     0.447611    Uiso  ? C
   H287       1.0     0.529544     0.265578     0.443550    Uiso  ? H
   C478       1.0     0.542922     0.234797     0.443928    Uiso  ? C
   C479       1.0     0.558048     0.223691     0.452985    Uiso  ? C
   H288       1.0     0.557765     0.207762     0.450448    Uiso  ? H
   C480       1.0     0.526685     0.225315     0.431926    Uiso  ? C
   O217       1.0     0.604861     0.882024     0.420460    Uiso  ? O
   O218       1.0     0.617806     0.872998     0.391191    Uiso  ? O
   O219       1.0     0.570494     0.870984     0.390346    Uiso  ? O
   O220       1.0     0.598872     0.865449     0.374270    Uiso  ? O
   O221       1.0     0.573927     0.129508     0.393993    Uiso  ? O
   O222       1.0     0.581960     0.116671     0.364623    Uiso  ? O
   O223       1.0     0.607307     0.111846     0.421698    Uiso  ? O
   O224       1.0     0.622369     0.121353     0.392926    Uiso  ? O
   O225       1.0     0.577417     0.796749     0.511123    Uiso  ? O
   O226       1.0     0.605496     0.780920     0.520802    Uiso  ? O
   O227       1.0     0.580420     0.797931     0.486349    Uiso  ? O
   O228       1.0     0.610657     0.787170     0.476636    Uiso  ? O
   O229       1.0     0.608134     0.833717     0.476532    Uiso  ? O
   O230       1.0     0.628812     0.806754     0.475913    Uiso  ? O
   O231       1.0     0.607985     0.828675     0.529337    Uiso  ? O
   O232       1.0     0.638920     0.818761     0.520230    Uiso  ? O
   O233       1.0     0.475762     0.791503     0.428816    Uiso  ? O
   O234       1.0     0.481265     0.762237     0.416145    Uiso  ? O
   O235       1.0     0.489485     0.824634     0.392695    Uiso  ? O
   O236       1.0     0.480294     0.795967     0.379421    Uiso  ? O
   O237       1.0     0.516373     0.820778     0.394390    Uiso  ? O
   O238       1.0     0.525087     0.789188     0.386001    Uiso  ? O
   O239       1.0     0.524007     0.794498     0.433669    Uiso  ? O
   O240       1.0     0.526985     0.773593     0.407531    Uiso  ? O
   O241       1.0     0.560907     0.881913     0.612872    Uiso  ? O
   O242       1.0     0.587421     0.873774     0.629992    Uiso  ? O
   O243       1.0     0.599487     0.880741     0.579439    Uiso  ? O
   O244       1.0     0.623038     0.887207     0.602583    Uiso  ? O
   O245       1.0     0.595020     0.127370     0.584182    Uiso  ? O
   O246       1.0     0.621829     0.118390     0.601479    Uiso  ? O
   O247       1.0     0.576576     0.133055     0.599409    Uiso  ? O
   O248       1.0     0.589702     0.130997     0.629763    Uiso  ? O
   O249       1.0     0.603822     0.178108     0.526371    Uiso  ? O
   O250       1.0     0.634126     0.184798     0.516640    Uiso  ? O
   O251       1.0     0.618758     0.169675     0.476628    Uiso  ? O
   O252       1.0     0.634040     0.196997     0.464951    Uiso  ? O
   O253       1.0     0.583673     0.201067     0.478571    Uiso  ? O
   O254       1.0     0.602042     0.226295     0.485577    Uiso  ? O
   O255       1.0     0.589670     0.197995     0.521871    Uiso  ? O
   O256       1.0     0.605660     0.224980     0.510254    Uiso  ? O
   O257       1.0     0.481843     0.819033     0.600216    Uiso  ? O
   O258       1.0     0.473471     0.789511     0.613180    Uiso  ? O
   O259       1.0     0.474128     0.794144     0.567025    Uiso  ? O
   O260       1.0     0.471584     0.772926     0.592309    Uiso  ? O
   O261       1.0     0.525445     0.791776     0.567684    Uiso  ? O
   O262       1.0     0.519098     0.763502     0.583611    Uiso  ? O
   O263       1.0     0.509489     0.823500     0.602311    Uiso  ? O
   O264       1.0     0.518098     0.795803     0.619653    Uiso  ? O
   O265       1.0     0.556249     0.104772     0.428745    Uiso  ? O
   O266       1.0     0.573205     0.843905     0.510481    Uiso  ? O
   O267       1.0     0.495666     0.833449     0.442642    Uiso  ? O
   O268       1.0     0.556703     0.891582     0.565002    Uiso  ? O
   O269       1.0     0.576334     0.152361     0.496341    Uiso  ? O
   O270       1.0     0.503841     0.829710     0.553008    Uiso  ? O
   Zn49       1.0     0.578770     0.897573     0.407854    Uiso  ? Zn
   Zn50       1.0     0.607576     0.896852     0.372590    Uiso  ? Zn
   Zn51       1.0     0.593664     0.821657     0.502387    Uiso  ? Zn
   Zn52       1.0     0.629302     0.792640     0.503516    Uiso  ? Zn
   Zn53       1.0     0.499235     0.811158     0.420689    Uiso  ? Zn
   Zn54       1.0     0.497514     0.774430     0.394206    Uiso  ? Zn
   Zn55       1.0     0.577485     0.103050     0.589921    Uiso  ? Zn
   Zn56       1.0     0.607259     0.103025     0.625997    Uiso  ? Zn
   Zn57       1.0     0.595631     0.177884     0.496851    Uiso  ? Zn
   Zn58       1.0     0.628737     0.208849     0.494131    Uiso  ? Zn
   Zn59       1.0     0.500004     0.808961     0.574851    Uiso  ? Zn
   Zn60       1.0     0.500851     0.774673     0.606930    Uiso  ? Zn
   C481       1.0     0.383210     0.124557     0.588645    Uiso  ? C
   C482       1.0     0.369033     0.138144     0.578145    Uiso  ? C
   C483       1.0     0.348085     0.134802     0.580392    Uiso  ? C
   H289       1.0     0.342090     0.123259     0.590521    Uiso  ? H
   C484       1.0     0.335434     0.145718     0.566871    Uiso  ? C
   H290       1.0     0.319576     0.142159     0.567908    Uiso  ? H
   C485       1.0     0.343240     0.158612     0.551004    Uiso  ? C
   H291       1.0     0.331425     0.165355     0.540734    Uiso  ? H
   C486       1.0     0.363647     0.161705     0.548432    Uiso  ? C
   C487       1.0     0.377369     0.151709     0.562913    Uiso  ? C
   H292       1.0     0.393899     0.154458     0.560440    Uiso  ? H
   C488       1.0     0.373202     0.172046     0.530827    Uiso  ? C
   C489       1.0     0.437475     0.130683     0.624911    Uiso  ? C
   C490       1.0     0.449503     0.147364     0.633232    Uiso  ? C
   C491       1.0     0.446657     0.155283     0.652495    Uiso  ? C
   H293       1.0     0.436042     0.148340     0.662389    Uiso  ? H
   C492       1.0     0.457318     0.172530     0.658816    Uiso  ? C
   H294       1.0     0.454262     0.178581     0.673419    Uiso  ? H
   C493       1.0     0.470108     0.182015     0.645705    Uiso  ? C
   H295       1.0     0.480567     0.192821     0.653109    Uiso  ? H
   C494       1.0     0.471451     0.175625     0.625555    Uiso  ? C
   C495       1.0     0.462183     0.157869     0.619995    Uiso  ? C
   H296       1.0     0.463726     0.151041     0.604718    Uiso  ? H
   C496       1.0     0.484742     0.187110     0.611314    Uiso  ? C
   C497       1.0     0.424720     0.866161     0.621461    Uiso  ? C
   C498       1.0     0.430905     0.845171     0.626823    Uiso  ? C
   C499       1.0     0.420462     0.833826     0.641301    Uiso  ? C
   H297       1.0     0.407798     0.840181     0.649172    Uiso  ? H
   C500       1.0     0.427242     0.815360     0.647848    Uiso  ? C
   H298       1.0     0.421063     0.808318     0.659967    Uiso  ? H
   C501       1.0     0.444045     0.806508     0.638532    Uiso  ? C
   H299       1.0     0.447636     0.790964     0.641599    Uiso  ? H
   C502       1.0     0.455069     0.817837     0.623434    Uiso  ? C
   C503       1.0     0.449392     0.837521     0.618599    Uiso  ? C
   H300       1.0     0.458183     0.847100     0.608108    Uiso  ? H
   C504       1.0     0.470572     0.808302     0.611742    Uiso  ? C
   C505       1.0     0.391914     0.870544     0.590775    Uiso  ? C
   C506       1.0     0.381124     0.853220     0.581498    Uiso  ? C
   C507       1.0     0.365894     0.843047     0.592099    Uiso  ? C
   H301       1.0     0.359917     0.848946     0.606317    Uiso  ? H
   C508       1.0     0.357321     0.826088     0.584013    Uiso  ? C
   H302       1.0     0.347070     0.816742     0.593702    Uiso  ? H
   C509       1.0     0.362280     0.818235     0.565191    Uiso  ? C
   H303       1.0     0.355278     0.803769     0.560782    Uiso  ? H
   C510       1.0     0.376853     0.827930     0.554313    Uiso  ? C
   C511       1.0     0.386541     0.845548     0.562640    Uiso  ? C
   H304       1.0     0.397905     0.853810     0.554968    Uiso  ? H
   C512       1.0     0.382245     0.821049     0.533777    Uiso  ? C
   C513       1.0     0.406679     0.206544     0.469660    Uiso  ? C
   C514       1.0     0.415034     0.214707     0.451006    Uiso  ? C
   C515       1.0     0.401638     0.220997     0.435456    Uiso  ? C
   H305       1.0     0.384951     0.221800     0.437313    Uiso  ? H
   C516       1.0     0.409176     0.230002     0.417062    Uiso  ? C
   H306       1.0     0.398882     0.238617     0.406724    Uiso  ? H
   C517       1.0     0.429510     0.228917     0.413726    Uiso  ? C
   H307       1.0     0.435923     0.234354     0.400256    Uiso  ? H
   C518       1.0     0.442541     0.220774     0.427995    Uiso  ? C
   C519       1.0     0.435306     0.213808     0.446543    Uiso  ? C
   H308       1.0     0.444927     0.204410     0.455416    Uiso  ? H
   C520       1.0     0.463405     0.216480     0.422383    Uiso  ? C
   C521       1.0     0.414052     0.215499     0.516731    Uiso  ? C
   C522       1.0     0.426823     0.229763     0.528385    Uiso  ? C
   C523       1.0     0.419028     0.249326     0.531442    Uiso  ? C
   H309       1.0     0.406614     0.255436     0.521059    Uiso  ? H
   C524       1.0     0.426516     0.262023     0.546531    Uiso  ? C
   H310       1.0     0.419269     0.276714     0.549692    Uiso  ? H
   C525       1.0     0.443765     0.255287     0.557384    Uiso  ? C
   H311       1.0     0.447920     0.266889     0.568877    Uiso  ? H
   C526       1.0     0.453932     0.237084     0.553556    Uiso  ? C
   C527       1.0     0.445258     0.223802     0.539009    Uiso  ? C
   H312       1.0     0.452660     0.209495     0.534705    Uiso  ? H
   C528       1.0     0.471260     0.229099     0.566159    Uiso  ? C
   C529       1.0     0.374529     0.170946     0.468411    Uiso  ? C
   C530       1.0     0.367825     0.161952     0.449130    Uiso  ? C
   C531       1.0     0.348771     0.167622     0.441052    Uiso  ? C
   H313       1.0     0.338619     0.176384     0.449521    Uiso  ? H
   C532       1.0     0.342563     0.160880     0.421763    Uiso  ? C
   H314       1.0     0.328098     0.165861     0.415609    Uiso  ? H
   C533       1.0     0.354385     0.147329     0.410585    Uiso  ? C
   H315       1.0     0.350426     0.141352     0.395766    Uiso  ? H
   C534       1.0     0.372571     0.140158     0.418946    Uiso  ? C
   C535       1.0     0.378876     0.147572     0.438486    Uiso  ? C
   H316       1.0     0.392151     0.141454     0.445961    Uiso  ? H
   C536       1.0     0.385388     0.125790     0.407905    Uiso  ? C
   C537       1.0     0.534772     0.226595     0.569721    Uiso  ? C
   C538       1.0     0.553572     0.233380     0.560711    Uiso  ? C
   C539       1.0     0.561623     0.252793     0.565972    Uiso  ? C
   H317       1.0     0.554383     0.262577     0.576317    Uiso  ? H
   C540       1.0     0.580862     0.258436     0.559103    Uiso  ? C
   H318       1.0     0.587718     0.272245     0.565423    Uiso  ? H
   C541       1.0     0.590960     0.246873     0.544926    Uiso  ? C
   H319       1.0     0.605935     0.251286     0.539979    Uiso  ? H
   C542       1.0     0.582318     0.228925     0.538139    Uiso  ? C
   C543       1.0     0.564060     0.221255     0.547107    Uiso  ? C
   H320       1.0     0.558009     0.207837     0.541962    Uiso  ? H
   C544       1.0     0.593629     0.216800     0.523355    Uiso  ? C
   C545       1.0     0.532022     0.198597     0.605696    Uiso  ? C
   C546       1.0     0.548856     0.189355     0.616234    Uiso  ? C
   C547       1.0     0.555668     0.199468     0.633592    Uiso  ? C
   H321       1.0     0.549329     0.214524     0.637505    Uiso  ? H
   C548       1.0     0.571356     0.190120     0.645037    Uiso  ? C
   H322       1.0     0.577289     0.198021     0.658219    Uiso  ? H
   C549       1.0     0.579556     0.171723     0.639556    Uiso  ? C
   H323       1.0     0.591482     0.164665     0.649355    Uiso  ? H
   C550       1.0     0.572075     0.162019     0.621983    Uiso  ? C
   C551       1.0     0.557394     0.171580     0.610682    Uiso  ? C
   H324       1.0     0.552129     0.164086     0.597324    Uiso  ? H
   C552       1.0     0.580054     0.141025     0.617160    Uiso  ? C
   C553       1.0     0.420802     0.134445     0.377312    Uiso  ? C
   C554       1.0     0.429331     0.154036     0.371368    Uiso  ? C
   C555       1.0     0.420402     0.164449     0.355385    Uiso  ? C
   H325       1.0     0.407270     0.158857     0.347918    Uiso  ? H
   C556       1.0     0.426545     0.183669     0.351265    Uiso  ? C
   H326       1.0     0.417925     0.192212     0.340864    Uiso  ? H
   C557       1.0     0.443217     0.191997     0.361433    Uiso  ? C
   H327       1.0     0.447844     0.206682     0.357188    Uiso  ? H
   C558       1.0     0.454631     0.180908     0.375646    Uiso  ? C
   C559       1.0     0.446157     0.162111     0.381170    Uiso  ? C
   H328       1.0     0.454995     0.153038     0.392031    Uiso  ? H
   C560       1.0     0.473080     0.190047     0.385523    Uiso  ? C
   C561       1.0     0.381577     0.874940     0.414555    Uiso  ? C
   C562       1.0     0.366947     0.866830     0.429499    Uiso  ? C
   C563       1.0     0.345531     0.870996     0.428398    Uiso  ? C
   H329       1.0     0.339919     0.881738     0.416754    Uiso  ? H
   C564       1.0     0.332051     0.862034     0.443359    Uiso  ? C
   H330       1.0     0.315745     0.863793     0.442366    Uiso  ? H
   C565       1.0     0.339672     0.851262     0.459474    Uiso  ? C
   H331       1.0     0.329553     0.849480     0.471797    Uiso  ? H
   C566       1.0     0.359747     0.845444     0.459556    Uiso  ? C
   C567       1.0     0.373558     0.854030     0.445092    Uiso  ? C
   H332       1.0     0.390160     0.851457     0.444299    Uiso  ? H
   C568       1.0     0.369004     0.829746     0.473556    Uiso  ? C
   C569       1.0     0.409531     0.783211     0.523740    Uiso  ? C
   C570       1.0     0.419420     0.772941     0.540701    Uiso  ? C
   C571       1.0     0.409620     0.756518     0.549671    Uiso  ? C
   H333       1.0     0.396495     0.749888     0.543514    Uiso  ? H
   C572       1.0     0.417372     0.748298     0.568097    Uiso  ? C
   H334       1.0     0.409316     0.737460     0.576080    Uiso  ? H
   C573       1.0     0.435474     0.756952     0.576008    Uiso  ? C
   H335       1.0     0.442154     0.750023     0.589597    Uiso  ? H
   C574       1.0     0.445378     0.772908     0.566614    Uiso  ? C
   C575       1.0     0.437261     0.781063     0.549717    Uiso  ? C
   H336       1.0     0.445026     0.792874     0.541244    Uiso  ? H
   C576       1.0     0.464886     0.779778     0.575447    Uiso  ? C
   O271       1.0     0.401092     0.125052     0.584125    Uiso  ? O
   O272       1.0     0.377393     0.114218     0.603325    Uiso  ? O
   O273       1.0     0.446101     0.116981     0.614536    Uiso  ? O
   O274       1.0     0.418879     0.129817     0.627730    Uiso  ? O
   O275       1.0     0.428316     0.872856     0.603815    Uiso  ? O
   O276       1.0     0.413435     0.875924     0.633907    Uiso  ? O
   O277       1.0     0.410597     0.872954     0.586764    Uiso  ? O
   O278       1.0     0.383642     0.881955     0.603562    Uiso  ? O
   O279       1.0     0.417591     0.195739     0.481096    Uiso  ? O
   O280       1.0     0.387367     0.208015     0.473841    Uiso  ? O
   O281       1.0     0.421805     0.199840     0.509123    Uiso  ? O
   O282       1.0     0.395352     0.219334     0.515731    Uiso  ? O
   O283       1.0     0.392427     0.173083     0.529174    Uiso  ? O
   O284       1.0     0.362463     0.180951     0.518216    Uiso  ? O
   O285       1.0     0.387936     0.162335     0.478637    Uiso  ? O
   O286       1.0     0.370221     0.189635     0.472757    Uiso  ? O
   O287       1.0     0.528591     0.208535     0.566963    Uiso  ? O
   O288       1.0     0.525145     0.237149     0.581454    Uiso  ? O
   O289       1.0     0.527813     0.192869     0.587515    Uiso  ? O
   O290       1.0     0.518934     0.209001     0.615413    Uiso  ? O
   O291       1.0     0.484771     0.182339     0.593107    Uiso  ? O
   O292       1.0     0.492752     0.203278     0.616157    Uiso  ? O
   O293       1.0     0.482836     0.216551     0.557176    Uiso  ? O
   O294       1.0     0.473756     0.234173     0.583878    Uiso  ? O
   O295       1.0     0.423565     0.128419     0.395766    Uiso  ? O
   O296       1.0     0.410178     0.124102     0.365470    Uiso  ? O
   O297       1.0     0.403716     0.123879     0.413674    Uiso  ? O
   O298       1.0     0.377741     0.113019     0.395465    Uiso  ? O
   O299       1.0     0.400608     0.876486     0.420460    Uiso  ? O
   O300       1.0     0.375518     0.882500     0.398060    Uiso  ? O
   O301       1.0     0.437843     0.880726     0.386564    Uiso  ? O
   O302       1.0     0.412319     0.873703     0.367028    Uiso  ? O
   O303       1.0     0.387924     0.827462     0.471915    Uiso  ? O
   O304       1.0     0.359558     0.819814     0.487383    Uiso  ? O
   O305       1.0     0.395162     0.830473     0.523530    Uiso  ? O
   O306       1.0     0.375161     0.804794     0.526596    Uiso  ? O
   O307       1.0     0.419230     0.794515     0.511858    Uiso  ? O
   O308       1.0     0.389969     0.784119     0.523711    Uiso  ? O
   O309       1.0     0.423951     0.795479     0.484797    Uiso  ? O
   O310       1.0     0.394052     0.784135     0.475855    Uiso  ? O
   O311       1.0     0.508890     0.175151     0.397283    Uiso  ? O
   O312       1.0     0.522023     0.203398     0.385531    Uiso  ? O
   O313       1.0     0.523347     0.206514     0.432615    Uiso  ? O
   O314       1.0     0.514960     0.236656     0.421657    Uiso  ? O
   O315       1.0     0.474515     0.204355     0.432646    Uiso  ? O
   O316       1.0     0.469979     0.223226     0.406073    Uiso  ? O
   O317       1.0     0.484947     0.179069     0.396319    Uiso  ? O
   O318       1.0     0.475448     0.208972     0.385151    Uiso  ? O
   O319       1.0     0.444983     0.110660     0.568599    Uiso  ? O
   O320       1.0     0.427093     0.152380     0.500522    Uiso  ? O
   O321       1.0     0.496891     0.171808     0.548431    Uiso  ? O
   O322       1.0     0.445386     0.892896     0.429420    Uiso  ? O
   O323       1.0     0.427642     0.843100     0.490744    Uiso  ? O
   O324       1.0     0.495544     0.170713     0.448753    Uiso  ? O
   Zn61       1.0     0.425081     0.105702     0.592568    Uiso  ? Zn
   Zn62       1.0     0.398344     0.106041     0.626757    Uiso  ? Zn
   Zn63       1.0     0.406318     0.174476     0.501437    Uiso  ? Zn
   Zn64       1.0     0.371404     0.205455     0.501419    Uiso  ? Zn
   Zn65       1.0     0.501245     0.194246     0.569586    Uiso  ? Zn
   Zn66       1.0     0.501177     0.229792     0.598990    Uiso  ? Zn
   Zn67       1.0     0.423099     0.894844     0.408178    Uiso  ? Zn
   Zn68       1.0     0.391032     0.894389     0.372190    Uiso  ? Zn
   Zn69       1.0     0.408645     0.820057     0.496107    Uiso  ? Zn
   Zn70       1.0     0.373315     0.793369     0.496701    Uiso  ? Zn
   Zn71       1.0     0.499470     0.189338     0.423681    Uiso  ? Zn
   Zn72       1.0     0.501910     0.225753     0.394509    Uiso  ? Zn
   H337       1.0     0.431346     0.144966     0.489189    Uiso  ? H
   H338       1.0     0.431985     0.149610     0.514049    Uiso  ? H
   H339       1.0     0.575802     0.858485     0.509809    Uiso  ? H
   H340       1.0     0.560219     0.838415     0.515390    Uiso  ? H
   H341       1.0     0.509994     0.825449     0.540388    Uiso  ? H
   H342       1.0     0.504409     0.842417     0.559146    Uiso  ? H
   H343       1.0     0.559892     0.878631     0.558026    Uiso  ? H
   H344       1.0     0.547702     0.105194     0.560354    Uiso  ? H
   H345       1.0     0.504960     0.159298     0.446601    Uiso  ? H
   H346       1.0     0.492944     0.175173     0.462615    Uiso  ? H
   H347       1.0     0.545518     0.890891     0.431116    Uiso  ? H
   H348       1.0     0.551332     0.119052     0.430039    Uiso  ? H
   H349       1.0     0.562149     0.155658     0.494032    Uiso  ? H
   H350       1.0     0.581939     0.139577     0.494465    Uiso  ? H
   H351       1.0     0.447425     0.879059     0.432633    Uiso  ? H
   H352       1.0     0.453209     0.106996     0.436401    Uiso  ? H
   H353       1.0     0.506500     0.841863     0.447723    Uiso  ? H
   H354       1.0     0.482173     0.836795     0.445765    Uiso  ? H
   H355       1.0     0.423132     0.854479     0.482795    Uiso  ? H
   H356       1.0     0.440715     0.843299     0.496356    Uiso  ? H
   H357       1.0     0.483087     0.168768     0.543324    Uiso  ? H
   H358       1.0     0.507887     0.165811     0.540434    Uiso  ? H
   H359       1.0     0.442825     0.116945     0.554741    Uiso  ? H
   H360       1.0     0.459028     0.108858     0.573285    Uiso  ? H
   C577       1.0     0.418550     0.385984     0.133071    Uiso  ? C
   C578       1.0     0.426240     0.376086     0.151508    Uiso  ? C
   C579       1.0     0.416206     0.359925     0.161964    Uiso  ? C
   H361       1.0     0.403333     0.352604     0.154605    Uiso  ? H
   C580       1.0     0.421601     0.355448     0.181074    Uiso  ? C
   H362       1.0     0.414045     0.343592     0.190283    Uiso  ? H
   C581       1.0     0.439935     0.361048     0.187778    Uiso  ? C
   H363       1.0     0.445879     0.355850     0.201697    Uiso  ? H
   C582       1.0     0.450986     0.375956     0.177743    Uiso  ? C
   C583       1.0     0.444609     0.382514     0.158951    Uiso  ? C
   H364       1.0     0.453705     0.394292     0.153252    Uiso  ? H
   C584       1.0     0.470708     0.384034     0.185562    Uiso  ? C
   C585       1.0     0.379600     0.431586     0.120305    Uiso  ? C
   C586       1.0     0.368493     0.446804     0.132686    Uiso  ? C
   C587       1.0     0.348123     0.449095     0.130361    Uiso  ? C
   H365       1.0     0.339848     0.442896     0.116966    Uiso  ? H
   C588       1.0     0.338206     0.461561     0.145628    Uiso  ? C
   H366       1.0     0.322829     0.465563     0.144137    Uiso  ? H
   C589       1.0     0.347898     0.470604     0.161561    Uiso  ? C
   H367       1.0     0.340488     0.479849     0.172091    Uiso  ? H
   C590       1.0     0.368965     0.467746     0.163814    Uiso  ? C
   C591       1.0     0.378930     0.455220     0.149155    Uiso  ? C
   H368       1.0     0.395352     0.451128     0.151492    Uiso  ? H
   C592       1.0     0.381765     0.478747     0.178220    Uiso  ? C
   C593       1.0     0.381489     0.422680     0.874935    Uiso  ? C
   C594       1.0     0.372211     0.431364     0.856976    Uiso  ? C
   C595       1.0     0.353964     0.423205     0.849459    Uiso  ? C
   H369       1.0     0.347050     0.411154     0.856519    Uiso  ? H
   C596       1.0     0.346287     0.430639     0.831594    Uiso  ? C
   H370       1.0     0.331748     0.425716     0.825789    Uiso  ? H
   C597       1.0     0.355673     0.445837     0.820611    Uiso  ? C
   H371       1.0     0.349429     0.451054     0.806317    Uiso  ? H
   C598       1.0     0.374984     0.453294     0.827359    Uiso  ? C
   C599       1.0     0.381838     0.447074     0.846527    Uiso  ? C
   H372       1.0     0.394858     0.453203     0.852208    Uiso  ? H
   C600       1.0     0.385746     0.469431     0.815658    Uiso  ? C
   C601       1.0     0.415437     0.387414     0.866965    Uiso  ? C
   C602       1.0     0.423464     0.378582     0.848307    Uiso  ? C
   C603       1.0     0.413307     0.362177     0.839191    Uiso  ? C
   H373       1.0     0.399504     0.355898     0.845295    Uiso  ? H
   C604       1.0     0.420723     0.352319     0.821857    Uiso  ? C
   H374       1.0     0.412025     0.340223     0.817088    Uiso  ? H
   C605       1.0     0.439374     0.357797     0.814014    Uiso  ? C
   H375       1.0     0.444374     0.350492     0.800358    Uiso  ? H
   C606       1.0     0.449820     0.375158     0.821513    Uiso  ? C
   C607       1.0     0.442347     0.384529     0.839679    Uiso  ? C
   H376       1.0     0.450858     0.396999     0.846346    Uiso  ? H
   C608       1.0     0.468880     0.381238     0.812969    Uiso  ? C
   C609       1.0     0.534529     0.414413     0.220647    Uiso  ? C
   C610       1.0     0.551267     0.424471     0.230509    Uiso  ? C
   C611       1.0     0.554156     0.425244     0.251680    Uiso  ? C
   H377       1.0     0.546887     0.414573     0.261379    Uiso  ? H
   C612       1.0     0.568618     0.439311     0.260149    Uiso  ? C
   H378       1.0     0.568169     0.441350     0.274939    Uiso  ? H
   C613       1.0     0.579763     0.451742     0.247573    Uiso  ? C
   H379       1.0     0.591409     0.460642     0.254702    Uiso  ? H
   C614       1.0     0.575788     0.452365     0.226816    Uiso  ? C
   C615       1.0     0.561949     0.438100     0.218801    Uiso  ? C
   H380       1.0     0.560214     0.440451     0.203027    Uiso  ? H
   C616       1.0     0.584866     0.468361     0.214652    Uiso  ? C
   C617       1.0     0.474944     0.414446     0.223795    Uiso  ? C
   C618       1.0     0.456233     0.425505     0.232354    Uiso  ? C
   C619       1.0     0.447093     0.416279     0.249949    Uiso  ? C
   H381       1.0     0.455986     0.404327     0.256865    Uiso  ? H
   C620       1.0     0.430468     0.424696     0.258863    Uiso  ? C
   H382       1.0     0.424791     0.417509     0.272197    Uiso  ? H
   C621       1.0     0.422631     0.442932     0.251141    Uiso  ? C
   H383       1.0     0.410488     0.449514     0.259985    Uiso  ? H
   C622       1.0     0.430800     0.452540     0.233699    Uiso  ? C
   C623       1.0     0.447567     0.442979     0.224699    Uiso  ? C
   H384       1.0     0.453567     0.449118     0.210020    Uiso  ? H
   C624       1.0     0.420367     0.469376     0.222609    Uiso  ? C
   C625       1.0     0.532935     0.380352     0.184819    Uiso  ? C
   C626       1.0     0.549853     0.369682     0.173894    Uiso  ? C
   C627       1.0     0.556791     0.351061     0.180353    Uiso  ? C
   H385       1.0     0.551463     0.345269     0.195147    Uiso  ? H
   C628       1.0     0.571727     0.340137     0.169313    Uiso  ? C
   H386       1.0     0.576361     0.326250     0.176354    Uiso  ? H
   C629       1.0     0.581790     0.350446     0.152943    Uiso  ? C
   H387       1.0     0.595442     0.344844     0.146443    Uiso  ? H
   C630       1.0     0.575984     0.369792     0.146802    Uiso  ? C
   C631       1.0     0.559089     0.378509     0.157126    Uiso  ? C
   H388       1.0     0.554144     0.392928     0.151059    Uiso  ? H
   C632       1.0     0.584569     0.380428     0.128732    Uiso  ? C
   C633       1.0     0.417223     0.534970     0.217491    Uiso  ? C
   C634       1.0     0.426732     0.553859     0.225353    Uiso  ? C
   C635       1.0     0.421919     0.560561     0.244863    Uiso  ? C
   H389       1.0     0.409614     0.553185     0.251984    Uiso  ? H
   C636       1.0     0.432380     0.576344     0.254116    Uiso  ? C
   H390       1.0     0.430012     0.579974     0.269494    Uiso  ? H
   C637       1.0     0.448143     0.586245     0.244699    Uiso  ? C
   H391       1.0     0.455918     0.598053     0.252498    Uiso  ? H
   C638       1.0     0.453200     0.579855     0.224507    Uiso  ? C
   C639       1.0     0.442998     0.563163     0.214964    Uiso  ? C
   H392       1.0     0.446710     0.556794     0.199717    Uiso  ? H
   C640       1.0     0.470368     0.589070     0.213564    Uiso  ? C
   C641       1.0     0.379910     0.525204     0.187468    Uiso  ? C
   C642       1.0     0.367948     0.541316     0.177239    Uiso  ? C
   C643       1.0     0.346990     0.544657     0.181461    Uiso  ? C
   H393       1.0     0.339639     0.537166     0.193947    Uiso  ? H
   C644       1.0     0.335419     0.557368     0.169152    Uiso  ? C
   H394       1.0     0.319519     0.560240     0.173352    Uiso  ? H
   C645       1.0     0.345121     0.567836     0.153139    Uiso  ? C
   H395       1.0     0.335797     0.577867     0.143840    Uiso  ? H
   C646       1.0     0.366080     0.566327     0.149963    Uiso  ? C
   C647       1.0     0.376847     0.551799     0.160677    Uiso  ? C
   H396       1.0     0.392273     0.547737     0.156422    Uiso  ? H
   C648       1.0     0.375752     0.576788     0.133479    Uiso  ? C
   C649       1.0     0.617281     0.417463     0.121910    Uiso  ? C
   C650       1.0     0.628628     0.432129     0.135680    Uiso  ? C
   C651       1.0     0.650318     0.431446     0.136249    Uiso  ? C
   H397       1.0     0.660149     0.421224     0.128467    Uiso  ? H
   C652       1.0     0.660307     0.445973     0.147900    Uiso  ? C
   H398       1.0     0.676395     0.446700     0.147556    Uiso  ? H
   C653       1.0     0.649129     0.460051     0.159327    Uiso  ? C
   H399       1.0     0.657613     0.470352     0.168337    Uiso  ? H
   C654       1.0     0.628200     0.457947     0.162264    Uiso  ? C
   C655       1.0     0.618099     0.444095     0.150224    Uiso  ? C
   H400       1.0     0.601677     0.443465     0.150421    Uiso  ? H
   C656       1.0     0.617134     0.471746     0.176834    Uiso  ? C
   C657       1.0     0.584061     0.372145     0.866158    Uiso  ? C
   C658       1.0     0.574340     0.362204     0.849237    Uiso  ? C
   C659       1.0     0.582996     0.344993     0.839637    Uiso  ? C
   H401       1.0     0.597196     0.338435     0.844538    Uiso  ? H
   C660       1.0     0.572920     0.336487     0.822931    Uiso  ? C
   H402       1.0     0.577746     0.323606     0.814738    Uiso  ? H
   C661       1.0     0.554400     0.343318     0.815941    Uiso  ? C
   H403       1.0     0.546835     0.336778     0.802764    Uiso  ? H
   C662       1.0     0.545690     0.361391     0.824336    Uiso  ? C
   C663       1.0     0.556324     0.370161     0.840253    Uiso  ? C
   H404       1.0     0.549169     0.383220     0.846795    Uiso  ? H
   C664       1.0     0.528902     0.371083     0.814110    Uiso  ? C
   C665       1.0     0.475293     0.415184     0.776528    Uiso  ? C
   C666       1.0     0.460591     0.428690     0.765810    Uiso  ? C
   C667       1.0     0.461627     0.429527     0.745314    Uiso  ? C
   H405       1.0     0.471135     0.420067     0.736839    Uiso  ? H
   C668       1.0     0.449083     0.442097     0.734352    Uiso  ? C
   H406       1.0     0.450384     0.441417     0.718090    Uiso  ? H
   C669       1.0     0.434649     0.454890     0.744442    Uiso  ? C
   H407       1.0     0.425808     0.465233     0.735217    Uiso  ? H
   C670       1.0     0.433558     0.454618     0.765874    Uiso  ? C
   C671       1.0     0.446413     0.441272     0.775708    Uiso  ? C
   H408       1.0     0.447718     0.441956     0.791420    Uiso  ? H
   C672       1.0     0.420870     0.469305     0.776444    Uiso  ? C
   O325       1.0     0.430727     0.394622     0.120907    Uiso  ? O
   O326       1.0     0.400017     0.384477     0.128331    Uiso  ? O
   O327       1.0     0.398207     0.434373     0.118473    Uiso  ? O
   O328       1.0     0.371610     0.415265     0.114023    Uiso  ? O
   O329       1.0     0.400679     0.422975     0.876711    Uiso  ? O
   O330       1.0     0.370766     0.411096     0.886489    Uiso  ? O
   O331       1.0     0.420963     0.404626     0.872466    Uiso  ? O
   O332       1.0     0.401700     0.377191     0.876315    Uiso  ? O
   O333       1.0     0.532328     0.415690     0.201526    Uiso  ? O
   O334       1.0     0.522937     0.403597     0.230991    Uiso  ? O
   O335       1.0     0.488508     0.423921     0.214069    Uiso  ? O
   O336       1.0     0.475377     0.395411     0.222601    Uiso  ? O
   O337       1.0     0.483351     0.393301     0.174937    Uiso  ? O
   O338       1.0     0.474650     0.379960     0.204475    Uiso  ? O
   O339       1.0     0.531339     0.399430     0.182487    Uiso  ? O
   O340       1.0     0.521146     0.369968     0.195271    Uiso  ? O
   O341       1.0     0.418749     0.530908     0.198651    Uiso  ? O
   O342       1.0     0.407229     0.523416     0.228770    Uiso  ? O
   O343       1.0     0.399495     0.523483     0.184071    Uiso  ? O
   O344       1.0     0.370304     0.513415     0.199326    Uiso  ? O
   O345       1.0     0.399474     0.483501     0.173658    Uiso  ? O
   O346       1.0     0.373398     0.484584     0.194316    Uiso  ? O
   O347       1.0     0.430678     0.483285     0.215010    Uiso  ? O
   O348       1.0     0.401661     0.469622     0.222990    Uiso  ? O
   O349       1.0     0.596904     0.416434     0.122025    Uiso  ? O
   O350       1.0     0.626391     0.407626     0.107861    Uiso  ? O
   O351       1.0     0.581749     0.398818     0.124985    Uiso  ? O
   O352       1.0     0.596415     0.370280     0.117738    Uiso  ? O
   O353       1.0     0.573337     0.383799     0.876591    Uiso  ? O
   O354       1.0     0.603072     0.370155     0.869226    Uiso  ? O
   O355       1.0     0.597504     0.425621     0.878999    Uiso  ? O
   O356       1.0     0.626296     0.408572     0.882789    Uiso  ? O
   O357       1.0     0.517756     0.383045     0.823498    Uiso  ? O
   O358       1.0     0.527047     0.369045     0.795221    Uiso  ? O
   O359       1.0     0.474020     0.399836     0.812941    Uiso  ? O
   O360       1.0     0.479858     0.369102     0.804138    Uiso  ? O
   O361       1.0     0.476334     0.415345     0.796021    Uiso  ? O
   O362       1.0     0.487191     0.402810     0.766611    Uiso  ? O
   O363       1.0     0.522133     0.415182     0.785336    Uiso  ? O
   O364       1.0     0.531300     0.384536     0.776763    Uiso  ? O
   O365       1.0     0.604709     0.518693     0.169431    Uiso  ? O
   O366       1.0     0.633190     0.508863     0.183033    Uiso  ? O
   O367       1.0     0.569718     0.518287     0.202575    Uiso  ? O
   O368       1.0     0.598195     0.528964     0.215381    Uiso  ? O
   O369       1.0     0.577649     0.472458     0.197488    Uiso  ? O
   O370       1.0     0.598511     0.479590     0.222694    Uiso  ? O
   O371       1.0     0.597965     0.472452     0.177053    Uiso  ? O
   O372       1.0     0.627544     0.484718     0.187038    Uiso  ? O
   O373       1.0     0.443917     0.434421     0.897917    Uiso  ? O
   O374       1.0     0.497153     0.437231     0.167552    Uiso  ? O
   O375       1.0     0.446167     0.494665     0.172313    Uiso  ? O
   O376       1.0     0.554065     0.423716     0.893299    Uiso  ? O
   O377       1.0     0.513795     0.431070     0.831571    Uiso  ? O
   O378       1.0     0.561971     0.501938     0.158810    Uiso  ? O
   Zn73       1.0     0.420174     0.416283     0.101222    Uiso  ? Zn
   Zn74       1.0     0.383002     0.387063     0.102223    Uiso  ? Zn
   Zn75       1.0     0.502753     0.414359     0.187958    Uiso  ? Zn
   Zn76       1.0     0.503613     0.380496     0.220033    Uiso  ? Zn
   Zn77       1.0     0.421381     0.499793     0.189332    Uiso  ? Zn
   Zn78       1.0     0.386667     0.497606     0.222103    Uiso  ? Zn
   Zn79       1.0     0.580141     0.407765     0.895867    Uiso  ? Zn
   Zn80       1.0     0.616717     0.378782     0.896002    Uiso  ? Zn
   Zn81       1.0     0.505093     0.408531     0.810097    Uiso  ? Zn
   Zn82       1.0     0.500031     0.377227     0.778781    Uiso  ? Zn
   Zn83       1.0     0.582658     0.500438     0.182059    Uiso  ? Zn
   Zn84       1.0     0.616939     0.502757     0.211305    Uiso  ? Zn
   C673       1.0     0.590978     0.618979     0.861860    Uiso  ? C
   C674       1.0     0.583241     0.626076     0.842425    Uiso  ? C
   C675       1.0     0.594445     0.636637     0.828605    Uiso  ? C
   H409       1.0     0.609380     0.641293     0.831686    Uiso  ? H
   C676       1.0     0.585792     0.643686     0.810700    Uiso  ? C
   H410       1.0     0.595320     0.652558     0.800550    Uiso  ? H
   C677       1.0     0.566336     0.637741     0.805349    Uiso  ? C
   H411       1.0     0.560706     0.641300     0.790149    Uiso  ? H
   C678       1.0     0.555113     0.625293     0.818677    Uiso  ? C
   C679       1.0     0.563698     0.619318     0.837304    Uiso  ? C
   H412       1.0     0.555771     0.607890     0.844945    Uiso  ? H
   C680       1.0     0.534772     0.619264     0.812972    Uiso  ? C
   C681       1.0     0.613957     0.576645     0.869089    Uiso  ? C
   C682       1.0     0.622978     0.563608     0.853836    Uiso  ? C
   C683       1.0     0.643502     0.565397     0.850563    Uiso  ? C
   H413       1.0     0.653001     0.577280     0.858029    Uiso  ? H
   C684       1.0     0.651881     0.554818     0.835402    Uiso  ? C
   H414       1.0     0.667554     0.557218     0.833429    Uiso  ? H
   C685       1.0     0.641228     0.541051     0.823535    Uiso  ? C
   H415       1.0     0.648345     0.534092     0.810270    Uiso  ? H
   C686       1.0     0.620707     0.538019     0.826713    Uiso  ? C
   C687       1.0     0.611724     0.548224     0.843857    Uiso  ? C
   H416       1.0     0.595219     0.546114     0.846631    Uiso  ? H
   C688       1.0     0.609443     0.523254     0.814582    Uiso  ? C
   C689       1.0     0.621232     0.573903     0.118467    Uiso  ? C
   C690       1.0     0.633836     0.558789     0.129633    Uiso  ? C
   C691       1.0     0.654840     0.557758     0.128172    Uiso  ? C
   H417       1.0     0.663756     0.566991     0.117155    Uiso  ? H
   C692       1.0     0.666871     0.544042     0.139793    Uiso  ? C
   H418       1.0     0.682599     0.545007     0.137730    Uiso  ? H
   C693       1.0     0.657147     0.531697     0.154478    Uiso  ? C
   H419       1.0     0.666106     0.522403     0.163858    Uiso  ? H
   C694       1.0     0.635420     0.531078     0.154237    Uiso  ? C
   C695       1.0     0.624402     0.544491     0.142632    Uiso  ? C
   H420       1.0     0.607511     0.544217     0.143912    Uiso  ? H
   C696       1.0     0.623729     0.518955     0.169256    Uiso  ? C
   C697       1.0     0.580649     0.622331     0.125378    Uiso  ? C
   C698       1.0     0.573718     0.632660     0.144191    Uiso  ? C
   C699       1.0     0.585441     0.647753     0.154590    Uiso  ? C
   H421       1.0     0.599640     0.652320     0.149632    Uiso  ? H
   C700       1.0     0.579257     0.655034     0.173446    Uiso  ? C
   H422       1.0     0.588682     0.664383     0.183183    Uiso  ? H
   C701       1.0     0.561733     0.647388     0.182405    Uiso  ? C
   H423       1.0     0.557886     0.653553     0.196880    Uiso  ? H
   C702       1.0     0.551086     0.631590     0.173627    Uiso  ? C
   C703       1.0     0.557008     0.624800     0.154868    Uiso  ? C
   H424       1.0     0.549108     0.612802     0.147829    Uiso  ? H
   C704       1.0     0.533892     0.621674     0.184425    Uiso  ? C
   C705       1.0     0.477406     0.579134     0.780504    Uiso  ? C
   C706       1.0     0.463657     0.566899     0.768079    Uiso  ? C
   C707       1.0     0.458200     0.573262     0.748982    Uiso  ? C
   H425       1.0     0.466412     0.585369     0.740443    Uiso  ? H
   C708       1.0     0.442440     0.563964     0.739412    Uiso  ? C
   H426       1.0     0.437698     0.569247     0.724617    Uiso  ? H
   C709       1.0     0.431388     0.548814     0.747789    Uiso  ? C
   H427       1.0     0.420419     0.541450     0.739278    Uiso  ? H
   C710       1.0     0.435705     0.542256     0.767491    Uiso  ? C
   C711       1.0     0.451909     0.551800     0.778267    Uiso  ? C
   H428       1.0     0.456150     0.547138     0.793271    Uiso  ? H
   C712       1.0     0.424201     0.526110     0.778127    Uiso  ? C
   C713       1.0     0.523805     0.585064     0.782199    Uiso  ? C
   C714       1.0     0.541043     0.574617     0.772877    Uiso  ? C
   C715       1.0     0.549706     0.581784     0.755179    Uiso  ? C
   H429       1.0     0.543093     0.595376     0.748341    Uiso  ? H
   C716       1.0     0.565053     0.571176     0.744691    Uiso  ? C
   H430       1.0     0.570731     0.576582     0.729949    Uiso  ? H
   C717       1.0     0.572175     0.553302     0.753084    Uiso  ? C
   H431       1.0     0.584678     0.546419     0.743838    Uiso  ? H
   C718       1.0     0.564164     0.544830     0.771507    Uiso  ? C
   C719       1.0     0.549875     0.557196     0.781903    Uiso  ? C
   H432       1.0     0.544464     0.552225     0.796539    Uiso  ? H
   C720       1.0     0.573055     0.527406     0.780605    Uiso  ? C
   C721       1.0     0.468011     0.623396     0.822867    Uiso  ? C
   C722       1.0     0.450820     0.632441     0.834279    Uiso  ? C
   C723       1.0     0.442054     0.650970     0.828049    Uiso  ? C
   H433       1.0     0.450494     0.660111     0.816548    Uiso  ? H
   C724       1.0     0.424234     0.657300     0.836081    Uiso  ? C
   H434       1.0     0.419256     0.673031     0.830386    Uiso  ? H
   C725       1.0     0.415386     0.646802     0.852326    Uiso  ? C
   H435       1.0     0.401234     0.651252     0.858048    Uiso  ? H
   C726       1.0     0.424055     0.628618     0.860158    Uiso  ? C
   C727       1.0     0.442623     0.621846     0.851383    Uiso  ? C
   H436       1.0     0.449884     0.608122     0.855789    Uiso  ? H
   C728       1.0     0.415019     0.617235     0.876974    Uiso  ? C
   C729       1.0     0.583777     0.462550     0.773199    Uiso  ? C
   C730       1.0     0.577829     0.441610     0.767426    Uiso  ? C
   C731       1.0     0.591676     0.429328     0.756824    Uiso  ? C
   H437       1.0     0.605587     0.435349     0.751179    Uiso  ? H
   C732       1.0     0.585624     0.409624     0.752316    Uiso  ? C
   H438       1.0     0.594080     0.400444     0.742264    Uiso  ? H
   C733       1.0     0.567697     0.401050     0.758841    Uiso  ? C
   H439       1.0     0.565389     0.385085     0.754464    Uiso  ? H
   C734       1.0     0.553991     0.412885     0.769209    Uiso  ? C
   C735       1.0     0.558806     0.433557     0.771976    Uiso  ? C
   H440       1.0     0.547194     0.443631     0.777514    Uiso  ? H
   C736       1.0     0.535037     0.403757     0.777332    Uiso  ? C
   C737       1.0     0.611884     0.475794     0.822836    Uiso  ? C
   C738       1.0     0.624047     0.465046     0.837162    Uiso  ? C
   C739       1.0     0.644932     0.466716     0.838357    Uiso  ? C
   H441       1.0     0.653589     0.476819     0.828490    Uiso  ? H
   C740       1.0     0.656007     0.454487     0.851592    Uiso  ? C
   H442       1.0     0.672531     0.455178     0.852519    Uiso  ? H
   C741       1.0     0.647517     0.440646     0.863742    Uiso  ? C
   H443       1.0     0.655731     0.429868     0.872695    Uiso  ? H
   C742       1.0     0.626892     0.438990     0.863134    Uiso  ? C
   C743       1.0     0.614591     0.451943     0.850257    Uiso  ? C
   H444       1.0     0.598442     0.449133     0.849267    Uiso  ? H
   C744       1.0     0.616113     0.423392     0.875358    Uiso  ? C
   C745       1.0     0.384931     0.581057     0.867437    Uiso  ? C
   C746       1.0     0.377791     0.574627     0.847827    Uiso  ? C
   C747       1.0     0.362956     0.585687     0.836235    Uiso  ? C
   H445       1.0     0.355774     0.598376     0.844151    Uiso  ? H
   C748       1.0     0.355588     0.577556     0.817658    Uiso  ? C
   H446       1.0     0.343085     0.584162     0.810776    Uiso  ? H
   C749       1.0     0.363835     0.560401     0.810920    Uiso  ? C
   H447       1.0     0.355638     0.553525     0.798322    Uiso  ? H
   C750       1.0     0.378716     0.549572     0.820639    Uiso  ? C
   C751       1.0     0.386836     0.557400     0.838775    Uiso  ? C
   H448       1.0     0.399160     0.550367     0.845580    Uiso  ? H
   C752       1.0     0.388188     0.531354     0.811786    Uiso  ? C
   C753       1.0     0.419669     0.620202     0.123620    Uiso  ? C
   C754       1.0     0.431993     0.632924     0.136232    Uiso  ? C
   C755       1.0     0.431390     0.654136     0.135152    Uiso  ? C
   H449       1.0     0.422800     0.660374     0.123448    Uiso  ? H
   C756       1.0     0.442609     0.665693     0.149134    Uiso  ? C
   H450       1.0     0.442332     0.681760     0.147888    Uiso  ? H
   C757       1.0     0.455294     0.655814     0.163066    Uiso  ? C
   H451       1.0     0.464105     0.665969     0.172585    Uiso  ? H
   C758       1.0     0.457853     0.635115     0.162870    Uiso  ? C
   C759       1.0     0.445896     0.623888     0.149483    Uiso  ? C
   H452       1.0     0.447615     0.607878     0.150609    Uiso  ? H
   C760       1.0     0.471880     0.624011     0.175854    Uiso  ? C
   C761       1.0     0.525713     0.584802     0.216233    Uiso  ? C
   C762       1.0     0.541696     0.572971     0.225978    Uiso  ? C
   C763       1.0     0.549359     0.579086     0.244294    Uiso  ? C
   H453       1.0     0.541993     0.592252     0.251891    Uiso  ? H
   C764       1.0     0.565829     0.570599     0.253164    Uiso  ? C
   H454       1.0     0.570635     0.575321     0.267972    Uiso  ? H
   C765       1.0     0.575945     0.554729     0.241696    Uiso  ? C
   H455       1.0     0.588664     0.548041     0.247948    Uiso  ? H
   C766       1.0     0.568392     0.547137     0.223595    Uiso  ? C
   C767       1.0     0.550397     0.555626     0.216498    Uiso  ? C
   H456       1.0     0.543912     0.550933     0.202449    Uiso  ? H
   C768       1.0     0.579245     0.530425     0.213164    Uiso  ? C
   O379       1.0     0.582809     0.603478     0.870024    Uiso  ? O
   O380       1.0     0.605964     0.627195     0.870805    Uiso  ? O
   O381       1.0     0.594872     0.578161     0.870653    Uiso  ? O
   O382       1.0     0.625311     0.586937     0.881026    Uiso  ? O
   O383       1.0     0.601790     0.574048     0.119650    Uiso  ? O
   O384       1.0     0.629881     0.584969     0.104697    Uiso  ? O
   O385       1.0     0.569938     0.610354     0.115246    Uiso  ? O
   O386       1.0     0.599353     0.623600     0.120025    Uiso  ? O
   O387       1.0     0.486959     0.572326     0.795838    Uiso  ? O
   O388       1.0     0.479014     0.597567     0.776569    Uiso  ? O
   O389       1.0     0.512762     0.575876     0.795146    Uiso  ? O
   O390       1.0     0.521023     0.603184     0.779178    Uiso  ? O
   O391       1.0     0.524912     0.607870     0.824369    Uiso  ? O
   O392       1.0     0.527309     0.624321     0.795778    Uiso  ? O
   O393       1.0     0.472313     0.604635     0.826754    Uiso  ? O
   O394       1.0     0.478260     0.633349     0.810408    Uiso  ? O
   O395       1.0     0.570947     0.473424     0.783256    Uiso  ? O
   O396       1.0     0.601934     0.467723     0.770979    Uiso  ? O
   O397       1.0     0.593279     0.476121     0.826285    Uiso  ? O
   O398       1.0     0.619281     0.484798     0.806976    Uiso  ? O
   O399       1.0     0.590077     0.521923     0.815594    Uiso  ? O
   O400       1.0     0.619450     0.509480     0.805818    Uiso  ? O
   O401       1.0     0.573022     0.524554     0.800060    Uiso  ? O
   O402       1.0     0.583603     0.516590     0.769492    Uiso  ? O
   O403       1.0     0.403213     0.577748     0.873205    Uiso  ? O
   O404       1.0     0.373831     0.593001     0.877713    Uiso  ? O
   O405       1.0     0.416980     0.598397     0.878580    Uiso  ? O
   O406       1.0     0.402142     0.625336     0.888187    Uiso  ? O
   O407       1.0     0.425524     0.602089     0.121431    Uiso  ? O
   O408       1.0     0.403382     0.626681     0.115612    Uiso  ? O
   O409       1.0     0.389371     0.568798     0.123250    Uiso  ? O
   O410       1.0     0.370912     0.594433     0.129312    Uiso  ? O
   O411       1.0     0.472896     0.604747     0.175657    Uiso  ? O
   O412       1.0     0.484226     0.634536     0.186582    Uiso  ? O
   O413       1.0     0.520379     0.613834     0.173035    Uiso  ? O
   O414       1.0     0.530840     0.624663     0.203330    Uiso  ? O
   O415       1.0     0.515228     0.576549     0.202232    Uiso  ? O
   O416       1.0     0.523397     0.603911     0.220465    Uiso  ? O
   O417       1.0     0.472414     0.586444     0.194923    Uiso  ? O
   O418       1.0     0.481220     0.601800     0.222290    Uiso  ? O
   O419       1.0     0.404196     0.471026     0.817160    Uiso  ? O
   O420       1.0     0.374999     0.481314     0.804975    Uiso  ? O
   O421       1.0     0.422968     0.471096     0.795909    Uiso  ? O
   O422       1.0     0.408885     0.481061     0.766366    Uiso  ? O
   O423       1.0     0.433569     0.513797     0.789998    Uiso  ? O
   O424       1.0     0.404513     0.524810     0.774676    Uiso  ? O
   O425       1.0     0.397789     0.518411     0.822538    Uiso  ? O
   O426       1.0     0.386640     0.528762     0.792657    Uiso  ? O
   O427       1.0     0.556374     0.570261     0.100998    Uiso  ? O
   O428       1.0     0.500333     0.573203     0.845951    Uiso  ? O
   O429       1.0     0.546354     0.490428     0.818475    Uiso  ? O
   O430       1.0     0.432291     0.556026     0.107506    Uiso  ? O
   O431       1.0     0.506280     0.575929     0.151049    Uiso  ? O
   O432       1.0     0.442787     0.504301     0.833251    Uiso  ? O
   Zn85       1.0     0.581934     0.586648     0.898857    Uiso  ? Zn
   Zn86       1.0     0.619630     0.614577     0.897367    Uiso  ? Zn
   Zn87       1.0     0.499674     0.590159     0.819296    Uiso  ? Zn
   Zn88       1.0     0.495969     0.621876     0.788398    Uiso  ? Zn
   Zn89       1.0     0.573609     0.494677     0.807714    Uiso  ? Zn
   Zn90       1.0     0.607983     0.496778     0.778650    Uiso  ? Zn
   Zn91       1.0     0.412129     0.580024     0.103713    Uiso  ? Zn
   Zn92       1.0     0.376657     0.612571     0.102672    Uiso  ? Zn
   Zn93       1.0     0.500737     0.591497     0.178353    Uiso  ? Zn
   Zn94       1.0     0.500381     0.624503     0.212725    Uiso  ? Zn
   Zn95       1.0     0.420054     0.499012     0.812625    Uiso  ? Zn
   Zn96       1.0     0.386037     0.499929     0.780018    Uiso  ? Zn
   H457       1.0     0.501511     0.558868     0.844218    Uiso  ? H
   H458       1.0     0.494793     0.577573     0.858875    Uiso  ? H
   H459       1.0     0.499586     0.451483     0.170914    Uiso  ? H
   H460       1.0     0.489312     0.433703     0.155788    Uiso  ? H
   H461       1.0     0.548519     0.505897     0.161514    Uiso  ? H
   H462       1.0     0.565917     0.499435     0.145209    Uiso  ? H
   H463       1.0     0.551423     0.430717     0.881002    Uiso  ? H
   H464       1.0     0.546162     0.426880     0.106012    Uiso  ? H
   H465       1.0     0.440526     0.513847     0.844034    Uiso  ? H
   H466       1.0     0.456815     0.500048     0.829274    Uiso  ? H
   H467       1.0     0.440327     0.445836     0.889178    Uiso  ? H
   H468       1.0     0.457669     0.432611     0.102357    Uiso  ? H
   H469       1.0     0.501942     0.436801     0.838008    Uiso  ? H
   H470       1.0     0.526603     0.438954     0.830683    Uiso  ? H
   H471       1.0     0.427562     0.542481     0.104127    Uiso  ? H
   H472       1.0     0.442314     0.557320     0.118257    Uiso  ? H
   H473       1.0     0.453221     0.507517     0.169451    Uiso  ? H
   H474       1.0     0.453766     0.482003     0.172332    Uiso  ? H
   H475       1.0     0.496618     0.570084     0.141420    Uiso  ? H
   H476       1.0     0.520716     0.575007     0.148394    Uiso  ? H
   H477       1.0     0.544411     0.482178     0.830372    Uiso  ? H
   H478       1.0     0.535915     0.492258     0.808684    Uiso  ? H
   H479       1.0     0.544382     0.578102     0.104286    Uiso  ? H
   H480       1.0     0.554224     0.555635     0.898875    Uiso  ? H
   C769       1.0     0.510999     0.278792     0.362863    Uiso  ? C
   H481       1.0     0.512216     0.294973     0.360501    Uiso  ? H
   C770       1.0     0.512344     0.247025     0.356746    Uiso  ? C
   N1         1.0     0.514953     0.265592     0.348714    Uiso  ? N
   C771       1.0     0.525648     0.269757     0.328696    Uiso  ? C
   H482       1.0     0.542372     0.271393     0.330528    Uiso  ? H
   H483       1.0     0.523908     0.255240     0.319289    Uiso  ? H
   C772       1.0     0.516625     0.289016     0.318678    Uiso  ? C
   C773       1.0     0.525158     0.308087     0.321660    Uiso  ? C
   C774       1.0     0.499556     0.286570     0.306436    Uiso  ? C
   C775       1.0     0.515858     0.324848     0.313278    Uiso  ? C
   H484       1.0     0.538054     0.310093     0.331154    Uiso  ? H
   C776       1.0     0.490841     0.304126     0.297161    Uiso  ? C
   H485       1.0     0.491930     0.272073     0.304381    Uiso  ? H
   C777       1.0     0.499998     0.322778     0.299816    Uiso  ? C
   H486       1.0     0.522477     0.339417     0.316435    Uiso  ? H
   H487       1.0     0.478312     0.302025     0.286029    Uiso  ? H
   C778       1.0     0.491733     0.341291     0.290753    Uiso  ? C
   H488       1.0     0.474771     0.340977     0.289507    Uiso  ? H
   H489       1.0     0.493478     0.354026     0.299600    Uiso  ? H
   N2         1.0     0.500446     0.344972     0.270644    Uiso  ? N
   C779       1.0     0.494352     0.359504     0.257400    Uiso  ? C
   N3         1.0     0.505633     0.359558     0.240858    Uiso  ? N
   C780       1.0     0.518056     0.343408     0.242148    Uiso  ? C
   H490       1.0     0.531042     0.340049     0.232330    Uiso  ? H
   C781       1.0     0.515263     0.335280     0.260905    Uiso  ? C
   H491       1.0     0.524671     0.323944     0.267461    Uiso  ? H
   N4         1.0     0.505405     0.248547     0.375703    Uiso  ? N
   C782       1.0     0.506366     0.268274     0.380259    Uiso  ? C
   H492       1.0     0.505055     0.274687     0.394913    Uiso  ? H
   H493       1.0     0.515644     0.233062     0.350217    Uiso  ? H
   H494       1.0     0.481232     0.369327     0.260651    Uiso  ? H
   C783       1.0     0.487412     0.722833     0.359355    Uiso  ? C
   H495       1.0     0.478174     0.709488     0.355533    Uiso  ? H
   C784       1.0     0.508759     0.746668     0.359058    Uiso  ? C
   N5         1.0     0.503812     0.728878     0.350126    Uiso  ? N
   C785       1.0     0.516679     0.719436     0.335318    Uiso  ? C
   H496       1.0     0.524280     0.731204     0.325402    Uiso  ? H
   H497       1.0     0.528042     0.710146     0.343961    Uiso  ? H
   C786       1.0     0.506568     0.706260     0.320681    Uiso  ? C
   C787       1.0     0.492989     0.715144     0.306862    Uiso  ? C
   C788       1.0     0.509242     0.685202     0.320777    Uiso  ? C
   C789       1.0     0.484473     0.703874     0.292157    Uiso  ? C
   H498       1.0     0.489858     0.731492     0.307585    Uiso  ? H
   C790       1.0     0.498553     0.673646     0.306906    Uiso  ? C
   H499       1.0     0.521446     0.679812     0.330673    Uiso  ? H
   C791       1.0     0.486665     0.682765     0.291576    Uiso  ? C
   H500       1.0     0.475549     0.711535     0.281062    Uiso  ? H
   H501       1.0     0.499722     0.657374     0.307019    Uiso  ? H
   C792       1.0     0.475963     0.669311     0.276114    Uiso  ? C
   H502       1.0     0.470382     0.655291     0.284198    Uiso  ? H
   H503       1.0     0.461740     0.676209     0.270815    Uiso  ? H
   N6         1.0     0.489291     0.663277     0.259178    Uiso  ? N
   C793       1.0     0.483742     0.650299     0.245100    Uiso  ? C
   N7         1.0     0.498969     0.645517     0.233136    Uiso  ? N
   C794       1.0     0.514613     0.656410     0.239275    Uiso  ? C
   H504       1.0     0.528927     0.656838     0.231238    Uiso  ? H
   C795       1.0     0.508353     0.668376     0.255416    Uiso  ? C
   H505       1.0     0.516540     0.679539     0.263628    Uiso  ? H
   N8         1.0     0.496245     0.751539     0.374599    Uiso  ? N
   C796       1.0     0.482347     0.736623     0.374914    Uiso  ? C
   H506       1.0     0.470890     0.733780     0.385642    Uiso  ? H
   H507       1.0     0.521442     0.754958     0.352701    Uiso  ? H
   H508       1.0     0.470064     0.640871     0.246604    Uiso  ? H
   C797       1.0     0.481333     0.656608     0.737205    Uiso  ? C
   H509       1.0     0.471865     0.660692     0.724906    Uiso  ? H
   C798       1.0     0.502860     0.657517     0.761231    Uiso  ? C
   N9         1.0     0.498618     0.665140     0.742974    Uiso  ? N
   C799       1.0     0.507219     0.683382     0.734923    Uiso  ? C
   H510       1.0     0.501019     0.695176     0.743718    Uiso  ? H
   H511       1.0     0.524401     0.683914     0.736861    Uiso  ? H
   C800       1.0     0.500180     0.687650     0.712984    Uiso  ? C
   C801       1.0     0.507013     0.676607     0.696324    Uiso  ? C
   C802       1.0     0.488108     0.704604     0.708861    Uiso  ? C
   C803       1.0     0.502612     0.682521     0.676577    Uiso  ? C
   H512       1.0     0.517288     0.664352     0.698572    Uiso  ? H
   C804       1.0     0.483611     0.710603     0.689678    Uiso  ? C
   H513       1.0     0.481400     0.712622     0.720937    Uiso  ? H
   C805       1.0     0.490131     0.699031     0.673256    Uiso  ? C
   H514       1.0     0.507801     0.672703     0.663918    Uiso  ? H
   H515       1.0     0.474892     0.723812     0.689080    Uiso  ? H
   C806       1.0     0.484197     0.705443     0.652486    Uiso  ? C
   H516       1.0     0.488421     0.693283     0.641744    Uiso  ? H
   H517       1.0     0.467222     0.707479     0.650545    Uiso  ? H
   N10        1.0     0.495227     0.723736     0.647147    Uiso  ? N
   C807       1.0     0.488246     0.737001     0.633247    Uiso  ? C
   N11        1.0     0.502447     0.750693     0.627027    Uiso  ? N
   C808       1.0     0.518718     0.746443     0.638904    Uiso  ? C
   H518       1.0     0.533425     0.753640     0.637607    Uiso  ? H
   C809       1.0     0.514757     0.728959     0.649982    Uiso  ? C
   H519       1.0     0.523899     0.721144     0.660172    Uiso  ? H
   N12        1.0     0.491288     0.642404     0.766586    Uiso  ? N
   C810       1.0     0.477229     0.641279     0.751532    Uiso  ? C
   H520       1.0     0.464046     0.630304     0.751497    Uiso  ? H
   H521       1.0     0.515587     0.661443     0.769394    Uiso  ? H
   H522       1.0     0.472610     0.737022     0.628273    Uiso  ? H
   C811       1.0     0.504621     0.286899     0.629779    Uiso  ? C
   H523       1.0     0.511994     0.300758     0.633882    Uiso  ? H
   C812       1.0     0.482062     0.263503     0.624876    Uiso  ? C
   N13        1.0     0.485329     0.282385     0.633488    Uiso  ? N
   C813       1.0     0.470675     0.295523     0.643449    Uiso  ? C
   H524       1.0     0.468096     0.307758     0.632846    Uiso  ? H
   H525       1.0     0.456921     0.287566     0.646352    Uiso  ? H
   C814       1.0     0.478929     0.304067     0.663194    Uiso  ? C
   C815       1.0     0.485104     0.324190     0.664460    Uiso  ? C
   C816       1.0     0.482029     0.291105     0.679406    Uiso  ? C
   C817       1.0     0.495003     0.330709     0.682174    Uiso  ? C
   H526       1.0     0.479818     0.334467     0.652649    Uiso  ? H
   C818       1.0     0.490793     0.298107     0.697941    Uiso  ? C
   H527       1.0     0.474598     0.277402     0.679233    Uiso  ? H
   C819       1.0     0.497904     0.318255     0.698789    Uiso  ? C
   H528       1.0     0.499283     0.347066     0.682130    Uiso  ? H
   H529       1.0     0.492184     0.289303     0.711193    Uiso  ? H
   C820       1.0     0.509492     0.325477     0.717069    Uiso  ? C
   H530       1.0     0.514745     0.311946     0.725305    Uiso  ? H
   H531       1.0     0.523887     0.333212     0.711273    Uiso  ? H
   N14        1.0     0.498370     0.338530     0.730414    Uiso  ? N
   C821       1.0     0.507185     0.352442     0.742253    Uiso  ? C
   N15        1.0     0.494847     0.357281     0.758173    Uiso  ? N
   C822       1.0     0.479401     0.344613     0.756544    Uiso  ? C
   H532       1.0     0.466880     0.343565     0.766899    Uiso  ? H
   C823       1.0     0.481217     0.333054     0.739647    Uiso  ? C
   H533       1.0     0.472304     0.320358     0.734397    Uiso  ? H
   N16        1.0     0.498757     0.257164     0.615721    Uiso  ? N
   C824       1.0     0.512408     0.271703     0.618228    Uiso  ? C
   H534       1.0     0.527952     0.270892     0.612454    Uiso  ? H
   H535       1.0     0.467617     0.256825     0.624909    Uiso  ? H
   H536       1.0     0.520332     0.360448     0.738576    Uiso  ? H
   C825       1.0     0.734769     0.347230     0.514263    Uiso  ? C
   H537       1.0     0.725857     0.340634     0.526041    Uiso  ? H
   C826       1.0     0.745581     0.357848     0.485895    Uiso  ? C
   N17        1.0     0.732525     0.345253     0.493987    Uiso  ? N
   C827       1.0     0.717438     0.332703     0.482880    Uiso  ? C
   H538       1.0     0.706118     0.342275     0.476453    Uiso  ? H
   H539       1.0     0.724389     0.324508     0.470122    Uiso  ? H
   C828       1.0     0.707857     0.316418     0.495778    Uiso  ? C
   C829       1.0     0.719842     0.302438     0.505478    Uiso  ? C
   C830       1.0     0.686656     0.313580     0.494525    Uiso  ? C
   C831       1.0     0.711284     0.286718     0.516625    Uiso  ? C
   H540       1.0     0.735517     0.303832     0.505571    Uiso  ? H
   C832       1.0     0.677898     0.297083     0.504763    Uiso  ? C
   H541       1.0     0.678104     0.322729     0.484872    Uiso  ? H
   C833       1.0     0.689893     0.284112     0.516725    Uiso  ? C
   H542       1.0     0.721965     0.277504     0.524209    Uiso  ? H
   H543       1.0     0.661159     0.294182     0.503398    Uiso  ? H
   C834       1.0     0.680511     0.266175     0.527190    Uiso  ? C
   H544       1.0     0.690588     0.258513     0.538262    Uiso  ? H
   H545       1.0     0.667277     0.270829     0.536365    Uiso  ? H
   N18        1.0     0.672697     0.252072     0.511838    Uiso  ? N
   C835       1.0     0.655858     0.241103     0.513846    Uiso  ? C
   N19        1.0     0.654834     0.225874     0.499857    Uiso  ? N
   C836       1.0     0.673602     0.225448     0.491239    Uiso  ? C
   H546       1.0     0.679667     0.214360     0.481129    Uiso  ? H
   C837       1.0     0.683643     0.241687     0.498154    Uiso  ? C
   H547       1.0     0.699737     0.245084     0.495781    Uiso  ? H
   N20        1.0     0.757679     0.365888     0.499983    Uiso  ? N
   C838       1.0     0.749901     0.361056     0.517808    Uiso  ? C
   H548       1.0     0.755776     0.365216     0.531611    Uiso  ? H
   H549       1.0     0.748614     0.358824     0.469360    Uiso  ? H
   H550       1.0     0.642989     0.244697     0.522712    Uiso  ? H
   C839       1.0     0.680679     0.762883     0.517223    Uiso  ? C
   H551       1.0     0.692540     0.759844     0.527018    Uiso  ? H
   C840       1.0     0.661936     0.763003     0.490690    Uiso  ? C
   N21        1.0     0.680127     0.756838     0.497858    Uiso  ? N
   C841       1.0     0.696399     0.746075     0.486393    Uiso  ? C
   H552       1.0     0.692173     0.741591     0.471049    Uiso  ? H
   H553       1.0     0.709218     0.756257     0.484598    Uiso  ? H
   C842       1.0     0.703636     0.727082     0.496489    Uiso  ? C
   C843       1.0     0.723633     0.726546     0.502867    Uiso  ? C
   C844       1.0     0.690558     0.711337     0.501740    Uiso  ? C
   C845       1.0     0.732138     0.708447     0.510544    Uiso  ? C
   H554       1.0     0.734156     0.739241     0.499845    Uiso  ? H
   C846       1.0     0.698619     0.694077     0.511452    Uiso  ? C
   H555       1.0     0.673982     0.711998     0.501232    Uiso  ? H
   C847       1.0     0.719435     0.692362     0.515186    Uiso  ? C
   H556       1.0     0.748142     0.707010     0.510693    Uiso  ? H
   H557       1.0     0.687436     0.682509     0.513625    Uiso  ? H
   C848       1.0     0.728202     0.673268     0.524435    Uiso  ? C
   H558       1.0     0.735467     0.674934     0.538789    Uiso  ? H
   H559       1.0     0.716230     0.663526     0.528441    Uiso  ? H
   N22        1.0     0.740931     0.662064     0.510779    Uiso  ? N
   C849       1.0     0.756857     0.649858     0.516173    Uiso  ? C
   N23        1.0     0.765446     0.640608     0.499810    Uiso  ? N
   C850       1.0     0.754524     0.647109     0.484408    Uiso  ? C
   H560       1.0     0.755782     0.641904     0.468829    Uiso  ? H
   C851       1.0     0.740034     0.660638     0.490077    Uiso  ? C
   H561       1.0     0.728932     0.668004     0.480393    Uiso  ? H
   N24        1.0     0.653016     0.773949     0.505074    Uiso  ? N
   C852       1.0     0.664425     0.773888     0.521545    Uiso  ? C
   H562       1.0     0.662138     0.783398     0.534721    Uiso  ? H
   H563       1.0     0.655825     0.761394     0.475207    Uiso  ? H
   H564       1.0     0.761637     0.646436     0.531641    Uiso  ? H
   C853       1.0     0.261362     0.342752     0.500121    Uiso  ? C
   H565       1.0     0.274750     0.339179     0.491641    Uiso  ? H
   C854       1.0     0.234321     0.341262     0.515375    Uiso  ? C
   N25        1.0     0.249689     0.329650     0.509701    Uiso  ? N
   C855       1.0     0.250976     0.307366     0.507846    Uiso  ? C
   H566       1.0     0.243003     0.300960     0.521343    Uiso  ? H
   H567       1.0     0.243871     0.301996     0.493118    Uiso  ? H
   C856       1.0     0.271987     0.300669     0.508641    Uiso  ? C
   C857       1.0     0.284029     0.303204     0.526254    Uiso  ? C
   C858       1.0     0.280109     0.290796     0.491708    Uiso  ? C
   C859       1.0     0.303453     0.295063     0.526337    Uiso  ? C
   H568       1.0     0.278066     0.310295     0.540428    Uiso  ? H
   C860       1.0     0.300495     0.283996     0.491427    Uiso  ? C
   H569       1.0     0.270055     0.286640     0.479323    Uiso  ? H
   C861       1.0     0.312006     0.285483     0.509039    Uiso  ? C
   H570       1.0     0.312573     0.297449     0.539914    Uiso  ? H
   H571       1.0     0.306488     0.275071     0.477586    Uiso  ? H
   C862       1.0     0.333380     0.278436     0.509834    Uiso  ? C
   H572       1.0     0.344281     0.284860     0.497686    Uiso  ? H
   H573       1.0     0.339446     0.284060     0.523804    Uiso  ? H
   N26        1.0     0.335297     0.256549     0.509998    Uiso  ? N
   C863       1.0     0.351644     0.245904     0.503277    Uiso  ? C
   N27        1.0     0.350319     0.225760     0.507212    Uiso  ? N
   C864       1.0     0.332359     0.223950     0.516690    Uiso  ? C
   H574       1.0     0.325151     0.209039     0.521634    Uiso  ? H
   C865       1.0     0.324187     0.242323     0.520230    Uiso  ? C
   H575       1.0     0.309703     0.244885     0.527590    Uiso  ? H
   N28        1.0     0.236492     0.360810     0.510303    Uiso  ? N
   C866       1.0     0.252752     0.361784     0.499716    Uiso  ? C
   H576       1.0     0.259664     0.376535     0.495717    Uiso  ? H
   H577       1.0     0.219338     0.335975     0.521402    Uiso  ? H
   H578       1.0     0.363906     0.253271     0.494834    Uiso  ? H
   C867       1.0     0.262322     0.663101     0.508146    Uiso  ? C
   H579       1.0     0.274730     0.671384     0.515509    Uiso  ? H
   C868       1.0     0.240718     0.653030     0.486604    Uiso  ? C
   N29        1.0     0.253044     0.668388     0.490356    Uiso  ? N
   C869       1.0     0.255105     0.686888     0.478515    Uiso  ? C
   H580       1.0     0.251187     0.683892     0.462689    Uiso  ? H
   H581       1.0     0.244451     0.697639     0.484234    Uiso  ? H
   C870       1.0     0.275566     0.696686     0.479770    Uiso  ? C
   C871       1.0     0.280397     0.709153     0.496115    Uiso  ? C
   C872       1.0     0.290945     0.693270     0.464930    Uiso  ? C
   C873       1.0     0.299550     0.718916     0.497982    Uiso  ? C
   H582       1.0     0.268459     0.712987     0.507289    Uiso  ? H
   C874       1.0     0.309441     0.702084     0.466932    Uiso  ? C
   H583       1.0     0.288341     0.682804     0.451383    Uiso  ? H
   C875       1.0     0.314803     0.714516     0.483871    Uiso  ? C
   H584       1.0     0.302877     0.728453     0.509630    Uiso  ? H
   H585       1.0     0.321415     0.696831     0.456190    Uiso  ? H
   C876       1.0     0.336538     0.720097     0.488483    Uiso  ? C
   H586       1.0     0.340725     0.716693     0.504167    Uiso  ? H
   H587       1.0     0.346630     0.710330     0.478547    Uiso  ? H
   N30        1.0     0.340349     0.741651     0.484569    Uiso  ? N
   C877       1.0     0.353056     0.753927     0.495830    Uiso  ? C
   N31        1.0     0.353468     0.772282     0.487931    Uiso  ? N
   C878       1.0     0.342606     0.771683     0.470340    Uiso  ? C
   H588       1.0     0.339051     0.784628     0.461445    Uiso  ? H
   C879       1.0     0.333565     0.752880     0.469152    Uiso  ? C
   H589       1.0     0.323211     0.748226     0.458471    Uiso  ? H
   N32        1.0     0.238674     0.640412     0.502341    Uiso  ? N
   C880       1.0     0.253343     0.646293     0.515574    Uiso  ? C
   H590       1.0     0.256989     0.639922     0.530014    Uiso  ? H
   H591       1.0     0.231293     0.651959     0.473349    Uiso  ? H
   H592       1.0     0.360299     0.749687     0.509208    Uiso  ? H
   C881       1.0     0.657536     0.522849     0.252594    Uiso  ? C
   H593       1.0     0.664301     0.535217     0.261820    Uiso  ? H
   C882       1.0     0.648045     0.494715     0.241725    Uiso  ? C
   N33        1.0     0.659705     0.503179     0.256094    Uiso  ? N
   C883       1.0     0.669958     0.491612     0.271268    Uiso  ? C
   H594       1.0     0.656799     0.485024     0.281800    Uiso  ? H
   H595       1.0     0.678465     0.479145     0.265195    Uiso  ? H
   C884       1.0     0.685719     0.503192     0.282899    Uiso  ? C
   C885       1.0     0.706017     0.504132     0.276471    Uiso  ? C
   C886       1.0     0.682353     0.510765     0.301995    Uiso  ? C
   C887       1.0     0.721050     0.514578     0.287184    Uiso  ? C
   H596       1.0     0.709287     0.498169     0.260970    Uiso  ? H
   C888       1.0     0.697493     0.517382     0.315194    Uiso  ? C
   H597       1.0     0.666808     0.508376     0.308987    Uiso  ? H
   C889       1.0     0.717506     0.519963     0.307173    Uiso  ? C
   H598       1.0     0.735950     0.514764     0.280694    Uiso  ? H
   H599       1.0     0.695432     0.522379     0.330683    Uiso  ? H
   C890       1.0     0.734111     0.528169     0.320243    Uiso  ? C
   H600       1.0     0.746832     0.533647     0.310832    Uiso  ? H
   H601       1.0     0.728890     0.541132     0.327997    Uiso  ? H
   N34        1.0     0.741942     0.512868     0.334990    Uiso  ? N
   C891       1.0     0.760320     0.514237     0.344697    Uiso  ? C
   N35        1.0     0.761253     0.503001     0.361642    Uiso  ? N
   C892       1.0     0.743207     0.494740     0.363007    Uiso  ? C
   H602       1.0     0.738853     0.485009     0.376662    Uiso  ? H
   C893       1.0     0.731386     0.499891     0.346668    Uiso  ? C
   H603       1.0     0.716183     0.496060     0.344021    Uiso  ? H
   N36        1.0     0.637486     0.507943     0.230857    Uiso  ? N
   C894       1.0     0.642941     0.525436     0.237784    Uiso  ? C
   H604       1.0     0.635830     0.539939     0.233341    Uiso  ? H
   H605       1.0     0.646054     0.478469     0.239386    Uiso  ? H
   H606       1.0     0.772805     0.524463     0.340170    Uiso  ? H
   C895       1.0     0.359445     0.492059     0.278385    Uiso  ? C
   H607       1.0     0.360822     0.490262     0.294299    Uiso  ? H
   C896       1.0     0.348812     0.494326     0.248051    Uiso  ? C
   N37        1.0     0.342536     0.491540     0.266784    Uiso  ? N
   C897       1.0     0.322077     0.485247     0.271995    Uiso  ? C
   H608       1.0     0.311948     0.494737     0.263350    Uiso  ? H
   H609       1.0     0.319644     0.468912     0.269226    Uiso  ? H
   C898       1.0     0.317661     0.489566     0.294088    Uiso  ? C
   C899       1.0     0.312631     0.509225     0.300032    Uiso  ? C
   C900       1.0     0.315848     0.473237     0.308298    Uiso  ? C
   C901       1.0     0.307485     0.513237     0.320120    Uiso  ? C
   H610       1.0     0.317585     0.521213     0.290199    Uiso  ? H
   C902       1.0     0.307726     0.476605     0.326958    Uiso  ? C
   H611       1.0     0.320560     0.458155     0.303820    Uiso  ? H
   C903       1.0     0.304233     0.496766     0.333519    Uiso  ? C
   H612       1.0     0.304700     0.529125     0.324162    Uiso  ? H
   H613       1.0     0.304145     0.463862     0.336647    Uiso  ? H
   C904       1.0     0.297592     0.501200     0.355004    Uiso  ? C
   H614       1.0     0.303702     0.488106     0.364761    Uiso  ? H
   H615       1.0     0.303165     0.515934     0.359590    Uiso  ? H
   N38        1.0     0.275237     0.501850     0.357658    Uiso  ? N
   C905       1.0     0.264753     0.500478     0.374934    Uiso  ? C
   N39        1.0     0.244701     0.504508     0.373193    Uiso  ? N
   C906       1.0     0.242699     0.509776     0.353235    Uiso  ? C
   H616       1.0     0.228844     0.512575     0.345304    Uiso  ? H
   C907       1.0     0.262158     0.509225     0.344205    Uiso  ? C
   H617       1.0     0.266811     0.514547     0.329717    Uiso  ? H
   N40        1.0     0.368893     0.496007     0.247122    Uiso  ? N
   C908       1.0     0.375944     0.494719     0.266326    Uiso  ? C
   H618       1.0     0.392118     0.492894     0.270057    Uiso  ? H
   H619       1.0     0.339289     0.491469     0.234739    Uiso  ? H
   H620       1.0     0.272816     0.498178     0.388635    Uiso  ? H
   C909       1.0     0.332835     0.492121     0.751407    Uiso  ? C
   H621       1.0     0.319101     0.483232     0.748831    Uiso  ? H
   C910       1.0     0.358383     0.512679     0.747387    Uiso  ? C
   N41        1.0     0.338874     0.508002     0.740030    Uiso  ? N
   C911       1.0     0.326282     0.520804     0.728233    Uiso  ? C
   H622       1.0     0.317211     0.532185     0.736412    Uiso  ? H
   H623       1.0     0.336218     0.529618     0.717839    Uiso  ? H
   C912       1.0     0.311948     0.509343     0.715054    Uiso  ? C
   C913       1.0     0.318704     0.500550     0.696401    Uiso  ? C
   C914       1.0     0.291000     0.508761     0.720034    Uiso  ? C
   C915       1.0     0.305779     0.488676     0.685197    Uiso  ? C
   H624       1.0     0.334796     0.501377     0.689753    Uiso  ? H
   C916       1.0     0.278222     0.499060     0.707517    Uiso  ? C
   H625       1.0     0.284798     0.517266     0.733041    Uiso  ? H
   C917       1.0     0.285425     0.488023     0.690669    Uiso  ? C
   H626       1.0     0.311364     0.481192     0.670702    Uiso  ? H
   H627       1.0     0.263152     0.496988     0.711342    Uiso  ? H
   C918       1.0     0.270418     0.477002     0.678394    Uiso  ? C
   H628       1.0     0.278905     0.466390     0.668698    Uiso  ? H
   H629       1.0     0.259648     0.468016     0.688085    Uiso  ? H
   N42        1.0     0.259588     0.490026     0.664912    Uiso  ? N
   C919       1.0     0.241190     0.486545     0.657335    Uiso  ? C
   N43        1.0     0.235647     0.499920     0.643246    Uiso  ? N
   C920       1.0     0.250443     0.514188     0.644412    Uiso  ? C
   H630       1.0     0.250994     0.527412     0.635336    Uiso  ? H
   C921       1.0     0.265903     0.506725     0.655154    Uiso  ? C
   H631       1.0     0.280670     0.513924     0.657154    Uiso  ? H
   N44        1.0     0.363639     0.500393     0.761945    Uiso  ? N
   C922       1.0     0.348473     0.487991     0.764400    Uiso  ? C
   H632       1.0     0.347976     0.474958     0.775026    Uiso  ? H
   H633       1.0     0.367781     0.524893     0.742333    Uiso  ? H
   H634       1.0     0.232913     0.473358     0.662078    Uiso  ? H
   C923       1.0     0.636690     0.518515     0.725759    Uiso  ? C
   H635       1.0     0.635972     0.525483     0.711383    Uiso  ? H
   C924       1.0     0.646026     0.509951     0.756342    Uiso  ? C
   N45        1.0     0.652870     0.516132     0.738196    Uiso  ? N
   C925       1.0     0.673077     0.525160     0.736493    Uiso  ? C
   H636       1.0     0.672246     0.542244     0.736736    Uiso  ? H
   H637       1.0     0.683009     0.519720     0.749175    Uiso  ? H
   C926       1.0     0.682379     0.519724     0.716683    Uiso  ? C
   C927       1.0     0.679724     0.532044     0.699178    Uiso  ? C
   C928       1.0     0.694080     0.502019     0.714310    Uiso  ? C
   C929       1.0     0.685140     0.525038     0.679919    Uiso  ? C
   H638       1.0     0.674263     0.547793     0.700222    Uiso  ? H
   C930       1.0     0.699794     0.495499     0.695021    Uiso  ? C
   H639       1.0     0.697763     0.491915     0.727376    Uiso  ? H
   C931       1.0     0.694579     0.506503     0.678037    Uiso  ? C
   H640       1.0     0.682474     0.534047     0.666811    Uiso  ? H
   H641       1.0     0.709384     0.482195     0.695361    Uiso  ? H
   C932       1.0     0.701417     0.499175     0.657875    Uiso  ? C
   H642       1.0     0.702023     0.482397     0.658757    Uiso  ? H
   H643       1.0     0.690614     0.504063     0.646026    Uiso  ? H
   N46        1.0     0.722680     0.505054     0.651960    Uiso  ? N
   C933       1.0     0.731876     0.498675     0.635170    Uiso  ? C
   N47        1.0     0.752180     0.502671     0.634830    Uiso  ? N
   C934       1.0     0.754693     0.512880     0.652664    Uiso  ? C
   H644       1.0     0.769437     0.518791     0.656430    Uiso  ? H
   C935       1.0     0.736708     0.512139     0.663949    Uiso  ? C
   H645       1.0     0.734432     0.520340     0.677921    Uiso  ? H
   N48        1.0     0.625783     0.506509     0.756226    Uiso  ? N
   C936       1.0     0.620569     0.511719     0.737136    Uiso  ? C
   H646       1.0     0.605258     0.509372     0.731601    Uiso  ? H
   H647       1.0     0.655980     0.506993     0.769635    Uiso  ? H
   H648       1.0     0.723647     0.491902     0.623256    Uiso  ? H
   C937       1.0     0.753154     0.724686     0.892940    Uiso  ? C
   H649       1.0     0.750691     0.708903     0.888916    Uiso  ? H
   C938       1.0     0.752133     0.753433     0.108489    Uiso  ? C
   N49        1.0     0.743342     0.735399     0.107330    Uiso  ? N
   C939       1.0     0.725943     0.728457     0.119233    Uiso  ? C
   H650       1.0     0.730862     0.728774     0.134741    Uiso  ? H
   H651       1.0     0.712842     0.739601     0.118969    Uiso  ? H
   C940       1.0     0.718857     0.707527     0.112604    Uiso  ? C
   C941       1.0     0.729814     0.690324     0.116786    Uiso  ? C
   C942       1.0     0.700585     0.705295     0.103283    Uiso  ? C
   C943       1.0     0.722109     0.671342     0.111487    Uiso  ? C
   H652       1.0     0.745337     0.691235     0.123327    Uiso  ? H
   C944       1.0     0.692398     0.685790     0.899204    Uiso  ? C
   H653       1.0     0.691912     0.718102     0.900000    Uiso  ? H
   C945       1.0     0.702388     0.669143     0.103217    Uiso  ? C
   H654       1.0     0.731218     0.658776     0.116066    Uiso  ? H
   H655       1.0     0.677596     0.686253     0.892169    Uiso  ? H
   C946       1.0     0.694553     0.648272     0.896460    Uiso  ? C
   H656       1.0     0.694067     0.647891     0.879764    Uiso  ? H
   H657       1.0     0.704627     0.636875     0.100602    Uiso  ? H
   N50        1.0     0.674017     0.645726     0.104646    Uiso  ? N
   C947       1.0     0.662179     0.630195     0.896845    Uiso  ? C
   N51        1.0     0.644065     0.631369     0.104854    Uiso  ? N
   C948       1.0     0.644136     0.647635     0.117482    Uiso  ? C
   H658       1.0     0.632647     0.651385     0.127238    Uiso  ? H
   C949       1.0     0.663087     0.655188     0.118832    Uiso  ? C
   H659       1.0     0.668043     0.666809     0.128305    Uiso  ? H
   N52        1.0     0.769314     0.754120     0.897869    Uiso  ? N
   C950       1.0     0.769059     0.737039     0.886325    Uiso  ? C
   H660       1.0     0.780933     0.732765     0.874806    Uiso  ? H
   H661       1.0     0.748541     0.764619     0.119252    Uiso  ? H
   H662       1.0     0.666515     0.618277     0.886105    Uiso  ? H
   C951       1.0     0.660408     0.337763     0.110164    Uiso  ? C
   H663       1.0     0.666319     0.326661     0.119643    Uiso  ? H
   C952       1.0     0.652339     0.353400     0.883824    Uiso  ? C
   N53        1.0     0.666129     0.339987     0.890723    Uiso  ? N
   C953       1.0     0.677680     0.325916     0.877962    Uiso  ? C
   H664       1.0     0.665981     0.314862     0.872006    Uiso  ? H
   H665       1.0     0.684560     0.334291     0.864765    Uiso  ? H
   C954       1.0     0.695003     0.315945     0.888985    Uiso  ? C
   C955       1.0     0.712575     0.327249     0.894682    Uiso  ? C
   C956       1.0     0.694162     0.295693     0.893732    Uiso  ? C
   C957       1.0     0.727838     0.319231     0.106010    Uiso  ? C
   H666       1.0     0.714776     0.344482     0.892377    Uiso  ? H
   C958       1.0     0.708764     0.287618     0.105555    Uiso  ? C
   H667       1.0     0.681460     0.285513     0.890203    Uiso  ? H
   C959       1.0     0.725204     0.298601     0.112498    Uiso  ? C
   H668       1.0     0.741387     0.327546     0.110056    Uiso  ? H
   H669       1.0     0.706868     0.271338     0.110172    Uiso  ? H
   C960       1.0     0.741529     0.288659     0.125874    Uiso  ? C
   H670       1.0     0.749266     0.301171     0.133719    Uiso  ? H
   H671       1.0     0.734740     0.277463     0.136950    Uiso  ? H
   N54        1.0     0.755837     0.277997     0.113496    Uiso  ? N
   C961       1.0     0.764538     0.259505     0.116987    Uiso  ? C
   N55        1.0     0.777470     0.253305     0.102593    Uiso  ? N
   C962       1.0     0.778723     0.269191     0.890243    Uiso  ? C
   H672       1.0     0.785624     0.270723     0.875592    Uiso  ? H
   C963       1.0     0.765015     0.283644     0.896777    Uiso  ? C
   H673       1.0     0.760683     0.297523     0.888166    Uiso  ? H
   N56        1.0     0.639264     0.359107     0.898989    Uiso  ? N
   C964       1.0     0.644667     0.351096     0.116166    Uiso  ? C
   H674       1.0     0.638400     0.352556     0.131164    Uiso  ? H
   H675       1.0     0.652262     0.360415     0.869212    Uiso  ? H
   H676       1.0     0.762258     0.250380     0.130451    Uiso  ? H
   C965       1.0     0.233052     0.716151     0.105450    Uiso  ? C
   H677       1.0     0.233671     0.699951     0.108798    Uiso  ? H
   C966       1.0     0.240234     0.747135     0.109356    Uiso  ? C
   N57        1.0     0.247665     0.728594     0.112805    Uiso  ? N
   C967       1.0     0.266771     0.722771     0.122133    Uiso  ? C
   H678       1.0     0.278712     0.734828     0.121560    Uiso  ? H
   H679       1.0     0.263011     0.720890     0.138352    Uiso  ? H
   C968       1.0     0.275133     0.702920     0.114076    Uiso  ? C
   C969       1.0     0.272868     0.685261     0.124789    Uiso  ? C
   C970       1.0     0.282587     0.700696     0.894812    Uiso  ? C
   C971       1.0     0.283066     0.667728     0.118171    Uiso  ? C
   H680       1.0     0.265194     0.686092     0.139243    Uiso  ? H
   C972       1.0     0.290147     0.683623     0.886927    Uiso  ? C
   H681       1.0     0.283555     0.714274     0.885857    Uiso  ? H
   C973       1.0     0.292165     0.666375     0.899205    Uiso  ? C
   H682       1.0     0.283829     0.653125     0.127555    Uiso  ? H
   H683       1.0     0.294782     0.681949     0.871193    Uiso  ? H
   C974       1.0     0.301132     0.647371     0.891672    Uiso  ? C
   H684       1.0     0.291321     0.634785     0.895985    Uiso  ? H
   H685       1.0     0.302678     0.648247     0.874636    Uiso  ? H
   N58        1.0     0.321882     0.644463     0.898780    Uiso  ? N
   C975       1.0     0.333349     0.627508     0.895902    Uiso  ? C
   N59        1.0     0.353183     0.631842     0.100064    Uiso  ? N
   C976       1.0     0.354071     0.651303     0.106867    Uiso  ? C
   H686       1.0     0.367241     0.659347     0.111057    Uiso  ? H
   C977       1.0     0.335186     0.659408     0.105552    Uiso  ? C
   H687       1.0     0.331369     0.675007     0.108260    Uiso  ? H
   N60        1.0     0.222070     0.746806     0.100000    Uiso  ? N
   C978       1.0     0.217661     0.726629     0.897519    Uiso  ? C
   H688       1.0     0.204135     0.719789     0.891162    Uiso  ? H
   H689       1.0     0.248369     0.761507     0.113232    Uiso  ? H
   H690       1.0     0.327286     0.613222     0.889730    Uiso  ? H
   C979       1.0     0.339173     0.343465     0.113329    Uiso  ? C
   H691       1.0     0.327873     0.335357     0.123091    Uiso  ? H
   C980       1.0     0.354404     0.355631     0.888987    Uiso  ? C
   N61        1.0     0.339658     0.343170     0.893720    Uiso  ? N
   C981       1.0     0.328704     0.330308     0.879405    Uiso  ? C
   H692       1.0     0.325148     0.338817     0.865096    Uiso  ? H
   H693       1.0     0.338446     0.316952     0.876850    Uiso  ? H
   C982       1.0     0.309657     0.322350     0.888169    Uiso  ? C
   C983       1.0     0.290888     0.334707     0.886737    Uiso  ? C
   C984       1.0     0.307175     0.302021     0.895157    Uiso  ? C
   C985       1.0     0.272754     0.327220     0.893741    Uiso  ? C
   H694       1.0     0.290914     0.350776     0.881293    Uiso  ? H
   C986       1.0     0.287716     0.296470     0.102033    Uiso  ? C
   H695       1.0     0.320083     0.292045     0.894706    Uiso  ? H
   C987       1.0     0.270555     0.309090     0.100462    Uiso  ? C
   H696       1.0     0.259240     0.336589     0.893361    Uiso  ? H
   H697       1.0     0.286627     0.281050     0.108228    Uiso  ? H
   C988       1.0     0.249056     0.302090     0.106883    Uiso  ? C
   H698       1.0     0.248847     0.300191     0.123276    Uiso  ? H
   H699       1.0     0.237923     0.314421     0.103710    Uiso  ? H
   N62        1.0     0.242986     0.282349     0.897545    Uiso  ? N
   C989       1.0     0.232455     0.268077     0.105818    Uiso  ? C
   N63        1.0     0.228477     0.252290     0.892779    Uiso  ? N
   C990       1.0     0.238606     0.257762     0.876797    Uiso  ? C
   H700       1.0     0.238256     0.249180     0.862398    Uiso  ? H
   C991       1.0     0.246770     0.276115     0.879413    Uiso  ? C
   H701       1.0     0.254513     0.284104     0.868461    Uiso  ? H
   N64        1.0     0.362296     0.366232     0.104369    Uiso  ? N
   C992       1.0     0.353199     0.357567     0.120742    Uiso  ? C
   H702       1.0     0.356508     0.362148     0.136397    Uiso  ? H
   H703       1.0     0.361353     0.357932     0.874012    Uiso  ? H
   H704       1.0     0.227253     0.267546     0.121247    Uiso  ? H
   C993       1.0     0.631319     0.888107     0.682690    Uiso  ? C
   H705       1.0     0.634497     0.878120     0.695175    Uiso  ? H
   C994       1.0     0.633439     0.116660     0.662108    Uiso  ? C
   N65        1.0     0.639913     0.110281     0.680209    Uiso  ? N
   C995       1.0     0.651252     0.121954     0.694901    Uiso  ? C
   H706       1.0     0.658592     0.135772     0.688973    Uiso  ? H
   H707       1.0     0.641474     0.126206     0.707123    Uiso  ? H
   C996       1.0     0.667785     0.109814     0.704262    Uiso  ? C
   C997       1.0     0.666157     0.102675     0.723586    Uiso  ? C
   C998       1.0     0.685007     0.105980     0.692646    Uiso  ? C
   C999       1.0     0.681959     0.886854     0.730581    Uiso  ? C
   H708       1.0     0.654164     0.106179     0.732783    Uiso  ? H
   C1000      1.0     0.700839     0.892611     0.700558    Uiso  ? C
   H709       1.0     0.684629     0.109944     0.677761    Uiso  ? H
   C1001      1.0     0.699128     0.883658     0.719250    Uiso  ? C
   H710       1.0     0.681692     0.880860     0.745630    Uiso  ? H
   H711       1.0     0.712812     0.889401     0.688957    Uiso  ? H
   C1002      1.0     0.716189     0.871419     0.728231    Uiso  ? C
   H712       1.0     0.708100     0.859099     0.737413    Uiso  ? H
   H713       1.0     0.724172     0.864164     0.715088    Uiso  ? H
   N66        1.0     0.730366     0.884670     0.740185    Uiso  ? N
   C1003      1.0     0.738619     0.879165     0.758081    Uiso  ? C
   N67        1.0     0.753370     0.892744     0.763287    Uiso  ? N
   C1004      1.0     0.755421     0.109903     0.748805    Uiso  ? C
   H714       1.0     0.766265     0.121337     0.748152    Uiso  ? H
   C1005      1.0     0.741764     0.105378     0.734113    Uiso  ? C
   H715       1.0     0.740174     0.111475     0.719026    Uiso  ? H
   N68        1.0     0.622367     0.102948     0.651955    Uiso  ? N
   C1006      1.0     0.621215     0.883570     0.665406    Uiso  ? C
   H716       1.0     0.612923     0.870307     0.662480    Uiso  ? H
   H717       1.0     0.635563     0.131937     0.656691    Uiso  ? H
   H718       1.0     0.734120     0.867725     0.767936    Uiso  ? H
   C1007      1.0     0.266261     0.893989     0.740570    Uiso  ? C
   H719       1.0     0.269404     0.887970     0.726429    Uiso  ? H
   C1008      1.0     0.263167     0.119732     0.764387    Uiso  ? C
   N69        1.0     0.272328     0.116256     0.746632    Uiso  ? N
   C1009      1.0     0.284466     0.129977     0.735210    Uiso  ? C
   H720       1.0     0.275555     0.136354     0.723954    Uiso  ? H
   H721       1.0     0.289620     0.142154     0.744820    Uiso  ? H
   C1010      1.0     0.302759     0.121073     0.724705    Uiso  ? C
   C1011      1.0     0.320840     0.118646     0.735308    Uiso  ? C
   C1012      1.0     0.302568     0.116092     0.704440    Uiso  ? C
   C1013      1.0     0.337494     0.109356     0.726032    Uiso  ? C
   H722       1.0     0.321633     0.125094     0.751013    Uiso  ? H
   C1014      1.0     0.318908     0.107038     0.694923    Uiso  ? C
   H723       1.0     0.289212     0.118554     0.695091    Uiso  ? H
   C1015      1.0     0.336502     0.103164     0.705499    Uiso  ? C
   H724       1.0     0.350555     0.105898     0.734695    Uiso  ? H
   H725       1.0     0.317487     0.102631     0.679444    Uiso  ? H
   C1016      1.0     0.353343     0.888646     0.696165    Uiso  ? C
   H726       1.0     0.366009     0.888222     0.708347    Uiso  ? H
   H727       1.0     0.350764     0.872182     0.692049    Uiso  ? H
   N70        1.0     0.362030     0.104409     0.678845    Uiso  ? N
   C1017      1.0     0.370039     0.892742     0.662148    Uiso  ? C
   N71        1.0     0.381304     0.110097     0.651515    Uiso  ? N
   C1018      1.0     0.378760     0.127802     0.661623    Uiso  ? C
   H728       1.0     0.385242     0.142185     0.658451    Uiso  ? H
   C1019      1.0     0.367286     0.123880     0.679289    Uiso  ? C
   H729       1.0     0.362952     0.135159     0.690605    Uiso  ? H
   N72        1.0     0.251024     0.103973     0.769877    Uiso  ? N
   C1020      1.0     0.253045     0.886261     0.755119    Uiso  ? C
   H730       1.0     0.245271     0.871821     0.753828    Uiso  ? H
   H731       1.0     0.263781     0.133970     0.771525    Uiso  ? H
   H732       1.0     0.368534     0.877521     0.656436    Uiso  ? H
   C1021      1.0     0.284933     0.895878     0.236920    Uiso  ? C
   H733       1.0     0.298004     0.108461     0.242447    Uiso  ? H
   C1022      1.0     0.264739     0.870841     0.230178    Uiso  ? C
   N73        1.0     0.282938     0.875001     0.239504    Uiso  ? N
   C1023      1.0     0.296983     0.860615     0.249733    Uiso  ? C
   H734       1.0     0.288742     0.846104     0.252770    Uiso  ? H
   H735       1.0     0.309025     0.855329     0.238832    Uiso  ? H
   C1024      1.0     0.305488     0.870912     0.267363    Uiso  ? C
   C1025      1.0     0.293820     0.876049     0.284231    Uiso  ? C
   C1026      1.0     0.325807     0.876544     0.267610    Uiso  ? C
   C1027      1.0     0.301664     0.885189     0.301021    Uiso  ? C
   H736       1.0     0.278421     0.872230     0.285246    Uiso  ? H
   C1028      1.0     0.333803     0.888276     0.282816    Uiso  ? C
   H737       1.0     0.335336     0.871761     0.254745    Uiso  ? H
   C1029      1.0     0.322015     0.891857     0.300087    Uiso  ? C
   H738       1.0     0.292049     0.886777     0.314384    Uiso  ? H
   H739       1.0     0.349777     0.892204     0.281964    Uiso  ? H
   C1030      1.0     0.332346     0.107374     0.317345    Uiso  ? C
   H740       1.0     0.338482     0.121793     0.311452    Uiso  ? H
   H741       1.0     0.320475     0.112003     0.329436    Uiso  ? H
   N74        1.0     0.347833     0.892759     0.328159    Uiso  ? N
   C1031      1.0     0.361709     0.106250     0.340823    Uiso  ? C
   N75        1.0     0.373042     0.888698     0.349390    Uiso  ? N
   C1032      1.0     0.367585     0.870210     0.342463    Uiso  ? C
   H742       1.0     0.375037     0.855384     0.348509    Uiso  ? H
   C1033      1.0     0.352644     0.872980     0.328890    Uiso  ? C
   H743       1.0     0.345598     0.860686     0.320961    Uiso  ? H
   N76        1.0     0.257207     0.887896     0.220836    Uiso  ? N
   C1034      1.0     0.270669     0.107164     0.225375    Uiso  ? C
   H744       1.0     0.269471     0.122514     0.218763    Uiso  ? H
   H745       1.0     0.257877     0.856377     0.228622    Uiso  ? H
   H746       1.0     0.360903     0.122511     0.344053    Uiso  ? H
   C1035      1.0     0.632006     0.103066     0.314711    Uiso  ? C
   H747       1.0     0.631058     0.898255     0.298391    Uiso  ? H
   C1036      1.0     0.640404     0.114080     0.343927    Uiso  ? C
   N77        1.0     0.645341     0.114919     0.324608    Uiso  ? N
   C1037      1.0     0.659974     0.128826     0.315639    Uiso  ? C
   H748       1.0     0.652098     0.142250     0.307835    Uiso  ? H
   H749       1.0     0.670937     0.135619     0.327842    Uiso  ? H
   C1038      1.0     0.673370     0.117149     0.301384    Uiso  ? C
   C1039      1.0     0.670198     0.121549     0.280637    Uiso  ? C
   C1040      1.0     0.688971     0.104115     0.307248    Uiso  ? C
   C1041      1.0     0.681723     0.112853     0.266076    Uiso  ? C
   H750       1.0     0.657218     0.130036     0.274616    Uiso  ? H
   C1042      1.0     0.700550     0.891532     0.292422    Uiso  ? C
   H751       1.0     0.689973     0.896214     0.323521    Uiso  ? H
   C1043      1.0     0.696651     0.895549     0.271885    Uiso  ? C
   H752       1.0     0.677994     0.114279     0.250289    Uiso  ? H
   H753       1.0     0.712279     0.882073     0.296312    Uiso  ? H
   C1044      1.0     0.708168     0.885275     0.255815    Uiso  ? C
   H754       1.0     0.711640     0.869505     0.261149    Uiso  ? H
   H755       1.0     0.698573     0.882169     0.242244    Uiso  ? H
   N78        1.0     0.725941     0.895813     0.248694    Uiso  ? N
   C1045      1.0     0.736003     0.893460     0.231066    Uiso  ? C
   N79        1.0     0.752649     0.110232     0.230244    Uiso  ? N
   C1046      1.0     0.751976     0.120969     0.247083    Uiso  ? C
   H756       1.0     0.762291     0.132916     0.248694    Uiso  ? H
   C1047      1.0     0.736085     0.114019     0.259541    Uiso  ? C
   H757       1.0     0.732570     0.119304     0.274740    Uiso  ? H
   N80        1.0     0.623260     0.103153     0.346624    Uiso  ? N
   C1048      1.0     0.616123     0.892938     0.328344    Uiso  ? C
   H758       1.0     0.602374     0.885184     0.324237    Uiso  ? H
   H759       1.0     0.645995     0.125146     0.354858    Uiso  ? H
   H760       1.0     0.732413     0.882284     0.219678    Uiso  ? H
   C1049      1.0     0.874958     0.342743     0.665674    Uiso  ? C
   H761       1.0     0.863048     0.335259     0.672793    Uiso  ? H
   C1050      1.0     0.107637     0.354649     0.656065    Uiso  ? C
   N81        1.0     0.894832     0.343067     0.670814    Uiso  ? N
   C1051      1.0     0.106543     0.337214     0.690346    Uiso  ? C
   H762       1.0     0.123335     0.339659     0.690884    Uiso  ? H
   H763       1.0     0.896467     0.347127     0.701745    Uiso  ? H
   C1052      1.0     0.897523     0.315957     0.694545    Uiso  ? C
   C1053      1.0     0.881682     0.310890     0.708087    Uiso  ? C
   C1054      1.0     0.113266     0.300678     0.685928    Uiso  ? C
   C1055      1.0     0.877125     0.290585     0.712315    Uiso  ? C
   H764       1.0     0.873898     0.323667     0.715220    Uiso  ? H
   C1056      1.0     0.109132     0.280638     0.690825    Uiso  ? C
   H765       1.0     0.125291     0.304134     0.675410    Uiso  ? H
   C1057      1.0     0.889066     0.275367     0.704077    Uiso  ? C
   H766       1.0     0.863939     0.287576     0.722100    Uiso  ? H
   H767       1.0     0.118098     0.268382     0.686819    Uiso  ? H
   C1058      1.0     0.884367     0.253148     0.707457    Uiso  ? C
   H768       1.0     0.868237     0.249651     0.707051    Uiso  ? H
   H769       1.0     0.889193     0.243420     0.694836    Uiso  ? H
   N82        1.0     0.894998     0.244403     0.724438    Uiso  ? N
   C1059      1.0     0.888584     0.229673     0.736732    Uiso  ? C
   N83        1.0     0.105783     0.223894     0.751037    Uiso  ? N
   C1060      1.0     0.122116     0.234831     0.746307    Uiso  ? C
   H770       1.0     0.137068     0.233516     0.754295    Uiso  ? H
   C1061      1.0     0.117876     0.247018     0.729632    Uiso  ? C
   H771       1.0     0.127592     0.257481     0.721907    Uiso  ? H
   N84        1.0     0.889986     0.362392     0.642506    Uiso  ? N
   C1062      1.0     0.872687     0.354322     0.648459    Uiso  ? C
   H772       1.0     0.857831     0.357723     0.642016    Uiso  ? H
   H773       1.0     0.122651     0.359433     0.656490    Uiso  ? H
   H774       1.0     0.875208     0.221176     0.733809    Uiso  ? H
   C1063      1.0     0.894025     0.759880     0.718084    Uiso  ? C
   H775       1.0     0.105057     0.757595     0.702959    Uiso  ? H
   C1064      1.0     0.875626     0.758513     0.744691    Uiso  ? C
   N85        1.0     0.877708     0.751450     0.726157    Uiso  ? N
   C1065      1.0     0.865366     0.735648     0.716972    Uiso  ? C
   H776       1.0     0.854508     0.729017     0.728299    Uiso  ? H
   H777       1.0     0.857472     0.741944     0.704409    Uiso  ? H
   C1066      1.0     0.879671     0.720368     0.708350    Uiso  ? C
   C1067      1.0     0.884051     0.720798     0.687287    Uiso  ? C
   C1068      1.0     0.885698     0.704678     0.720014    Uiso  ? C
   C1069      1.0     0.895279     0.705794     0.679167    Uiso  ? C
   H778       1.0     0.879718     0.733762     0.677925    Uiso  ? H
   C1070      1.0     0.896853     0.688548     0.710962    Uiso  ? C
   H779       1.0     0.881738     0.703464     0.735579    Uiso  ? H
   C1071      1.0     0.106004     0.689338     0.690656    Uiso  ? C
   H780       1.0     0.103089     0.705478     0.663431    Uiso  ? H
   H781       1.0     0.101881     0.674930     0.720337    Uiso  ? H
   C1072      1.0     0.117678     0.672664     0.681177    Uiso  ? C
   H782       1.0     0.130808     0.677703     0.672577    Uiso  ? H
   H783       1.0     0.124674     0.662550     0.694136    Uiso  ? H
   N86        1.0     0.105196     0.659914     0.667280    Uiso  ? N
   C1073      1.0     0.111127     0.645852     0.653522    Uiso  ? C
   N87        1.0     0.892562     0.637669     0.643166    Uiso  ? N
   C1074      1.0     0.875913     0.646101     0.650613    Uiso  ? C
   H784       1.0     0.861122     0.642923     0.644156    Uiso  ? H
   C1075      1.0     0.881424     0.659991     0.666053    Uiso  ? C
   H785       1.0     0.871826     0.670159     0.673494    Uiso  ? H
   N88        1.0     0.890565     0.772151     0.748488    Uiso  ? N
   C1076      1.0     0.106279     0.773012     0.732154    Uiso  ? C
   H786       1.0     0.120056     0.781647     0.731637    Uiso  ? H
   H787       1.0     0.864014     0.754296     0.755547    Uiso  ? H
   H788       1.0     0.126418     0.641754     0.650148    Uiso  ? H
   C1077      1.0     0.891304     0.659675     0.337434    Uiso  ? C
   H789       1.0     0.880691     0.670360     0.329840    Uiso  ? H
   C1078      1.0     0.121927     0.647338     0.350794    Uiso  ? C
   N89        1.0     0.114910     0.660181     0.336454    Uiso  ? N
   C1079      1.0     0.127026     0.669539     0.319975    Uiso  ? C
   H790       1.0     0.142825     0.669441     0.326210    Uiso  ? H
   H791       1.0     0.127706     0.658442     0.306779    Uiso  ? H
   C1080      1.0     0.119632     0.690311     0.312199    Uiso  ? C
   C1081      1.0     0.105227     0.691277     0.296615    Uiso  ? C
   C1082      1.0     0.124445     0.707699     0.322269    Uiso  ? C
   C1083      1.0     0.895998     0.710236     0.288831    Uiso  ? C
   H792       1.0     0.896215     0.676919     0.289999    Uiso  ? H
   C1084      1.0     0.119656     0.726584     0.314367    Uiso  ? C
   H793       1.0     0.134552     0.705197     0.334516    Uiso  ? H
   C1085      1.0     0.106745     0.728083     0.298036    Uiso  ? C
   H794       1.0     0.886404     0.710049     0.275850    Uiso  ? H
   H795       1.0     0.124253     0.740793     0.321034    Uiso  ? H
   C1086      1.0     0.894366     0.747162     0.291226    Uiso  ? C
   H796       1.0     0.877836     0.747441     0.289682    Uiso  ? H
   H797       1.0     0.896767     0.759525     0.303526    Uiso  ? H
   N90        1.0     0.105874     0.755405     0.271957    Uiso  ? N
   C1087      1.0     0.894894     0.770995     0.261883    Uiso  ? C
   N91        1.0     0.107972     0.774967     0.244254    Uiso  ? N
   C1088      1.0     0.121278     0.760187     0.243028    Uiso  ? C
   H798       1.0     0.131763     0.758237     0.229316    Uiso  ? H
   C1089      1.0     0.121257     0.748791     0.260179    Uiso  ? C
   H799       1.0     0.131794     0.736197     0.262121    Uiso  ? H
   N92        1.0     0.106571     0.638555     0.361773    Uiso  ? N
   C1090      1.0     0.885876     0.646543     0.353152    Uiso  ? C
   H800       1.0     0.870866     0.643739     0.357954    Uiso  ? H
   H801       1.0     0.137150     0.642460     0.352824    Uiso  ? H
   H802       1.0     0.881729     0.778669     0.265985    Uiso  ? H
   C1091      1.0     0.120639     0.348228     0.338143    Uiso  ? C
   H803       1.0     0.129496     0.345346     0.324987    Uiso  ? H
   C1092      1.0     0.105787     0.345023     0.366009    Uiso  ? C
   N93        1.0     0.109449     0.335209     0.348761    Uiso  ? N
   C1093      1.0     0.105623     0.313531     0.344277    Uiso  ? C
   H804       1.0     0.116710     0.305388     0.352698    Uiso  ? H
   H805       1.0     0.887704     0.309204     0.350381    Uiso  ? H
   C1094      1.0     0.109267     0.305710     0.323026    Uiso  ? C
   C1095      1.0     0.890893     0.307777     0.308448    Uiso  ? C
   C1096      1.0     0.128268     0.296626     0.317161    Uiso  ? C
   C1097      1.0     0.892725     0.298808     0.289569    Uiso  ? C
   H806       1.0     0.876788     0.316521     0.312987    Uiso  ? H
   C1098      1.0     0.129696     0.289540     0.297667    Uiso  ? C
   H807       1.0     0.140956     0.296322     0.327349    Uiso  ? H
   C1099      1.0     0.113813     0.289161     0.284524    Uiso  ? C
   H808       1.0     0.880039     0.299981     0.279519    Uiso  ? H
   H809       1.0     0.144024     0.282979     0.293338    Uiso  ? H
   C1100      1.0     0.116602     0.279762     0.263582    Uiso  ? C
   H810       1.0     0.106371     0.288671     0.252987    Uiso  ? H
   H811       1.0     0.132696     0.281456     0.258078    Uiso  ? H
   N94        1.0     0.110288     0.258343     0.261744    Uiso  ? N
   C1101      1.0     0.112873     0.246989     0.245562    Uiso  ? C
   N95        1.0     0.103214     0.228814     0.246642    Uiso  ? N
   C1102      1.0     0.892208     0.228359     0.266036    Uiso  ? C
   H812       1.0     0.884112     0.216660     0.273048    Uiso  ? H
   C1103      1.0     0.897876     0.246500     0.275385    Uiso  ? C
   H813       1.0     0.893175     0.251460     0.290436    Uiso  ? H
   N96        1.0     0.112575     0.364339     0.365720    Uiso  ? N
   C1104      1.0     0.121133     0.366270     0.347632    Uiso  ? C
   H814       1.0     0.127468     0.378971     0.340615    Uiso  ? H
   H815       1.0     0.895479     0.336748     0.378080    Uiso  ? H
   H816       1.0     0.122664     0.252001     0.234125    Uiso  ? H
