
#======================================================================
# CRYSTAL DATA
#----------------------------------------------------------------------
data_VESTA_phase_1

_chemical_name_common                  ' Atoms. Timestep: 0'
_cell_length_a                         48.915123
_cell_length_b                         48.915123
_cell_length_c                         48.915123
_cell_angle_alpha                      90.000000
_cell_angle_beta                       90.000000
_cell_angle_gamma                      90.000000
_cell_volume                           1.000000
_space_group_name_H-M_alt              'P 1'
_space_group_IT_number                 1

loop_
_space_group_symop_operation_xyz
   'x, y, z'

loop_
   _atom_site_label
   _atom_site_occupancy
   _atom_site_fract_x
   _atom_site_fract_y
   _atom_site_fract_z
   _atom_site_adp_type
   _atom_site_U_iso_or_equiv
   _atom_site_type_symbol
   C1         1.0     0.796337     0.272113     0.161445    Uiso  ? C
   C2         1.0     0.792404     0.289199     0.136827    Uiso  ? C
   C3         1.0     0.780882     0.315461     0.136621    Uiso  ? C
   H1         1.0     0.780038     0.325084     0.155574    Uiso  ? H
   C4         1.0     0.772114     0.327505     0.111448    Uiso  ? C
   H2         1.0     0.764460     0.347408     0.109849    Uiso  ? H
   C5         1.0     0.776243     0.312898     0.887255    Uiso  ? C
   H3         1.0     0.768399     0.323702     0.869200    Uiso  ? H
   C6         1.0     0.788589     0.286687     0.886914    Uiso  ? C
   C7         1.0     0.796673     0.276970     0.111025    Uiso  ? C
   H4         1.0     0.809213     0.259186     0.111771    Uiso  ? H
   C8         1.0     0.795211     0.271882     0.859922    Uiso  ? C
   C9         1.0     0.760297     0.219773     0.189757    Uiso  ? C
   C10        1.0     0.733531     0.207309     0.181584    Uiso  ? C
   C11        1.0     0.709293     0.217097     0.191796    Uiso  ? C
   H5         1.0     0.709358     0.233771     0.206037    Uiso  ? H
   C12        1.0     0.684556     0.205156     0.184307    Uiso  ? C
   H6         1.0     0.665235     0.214270     0.191199    Uiso  ? H
   C13        1.0     0.683652     0.183079     0.166853    Uiso  ? C
   H7         1.0     0.663636     0.173658     0.163745    Uiso  ? H
   C14        1.0     0.708663     0.172918     0.155386    Uiso  ? C
   C15        1.0     0.733253     0.183950     0.164365    Uiso  ? C
   H8         1.0     0.752703     0.177060     0.154956    Uiso  ? H
   C16        1.0     0.708316     0.149862     0.133902    Uiso  ? C
   C17        1.0     0.810674     0.209929     0.240991    Uiso  ? C
   C18        1.0     0.813050     0.192898     0.266035    Uiso  ? C
   C19        1.0     0.802718     0.202821     0.292495    Uiso  ? C
   H9         1.0     0.791539     0.220793     0.293991    Uiso  ? H
   C20        1.0     0.809464     0.188284     0.316148    Uiso  ? C
   H10        1.0     0.803157     0.195580     0.335913    Uiso  ? H
   C21        1.0     0.824112     0.163711     0.314341    Uiso  ? C
   H11        1.0     0.827064     0.149909     0.332276    Uiso  ? H
   C22        1.0     0.834626     0.155182     0.289150    Uiso  ? C
   C23        1.0     0.830609     0.170388     0.265493    Uiso  ? C
   H12        1.0     0.842644     0.165814     0.246764    Uiso  ? H
   C24        1.0     0.853577     0.132461     0.289502    Uiso  ? C
   C25        1.0     0.850049     0.265839     0.208833    Uiso  ? C
   C26        1.0     0.875773     0.280090     0.216113    Uiso  ? C
   C27        1.0     0.877206     0.307441     0.225746    Uiso  ? C
   H13        1.0     0.858948     0.319444     0.228641    Uiso  ? H
   C28        1.0     0.106978     0.319476     0.233703    Uiso  ? C
   H14        1.0     0.108029     0.341157     0.238190    Uiso  ? H
   C29        1.0     0.131968     0.303659     0.231640    Uiso  ? C
   H15        1.0     0.151097     0.313384     0.236626    Uiso  ? H
   C30        1.0     0.130969     0.276467     0.222304    Uiso  ? C
   C31        1.0     0.106193     0.266100     0.212628    Uiso  ? C
   H16        1.0     0.104777     0.244949     0.204168    Uiso  ? H
   C32        1.0     0.156975     0.259663     0.216864    Uiso  ? C
   C33        1.0     0.818778     0.224381     0.772833    Uiso  ? C
   C34        1.0     0.826725     0.213153     0.746299    Uiso  ? C
   C35        1.0     0.817664     0.223872     0.721540    Uiso  ? C
   H17        1.0     0.800821     0.240446     0.721108    Uiso  ? H
   C36        1.0     0.827412     0.213724     0.696672    Uiso  ? C
   H18        1.0     0.820976     0.224040     0.677308    Uiso  ? H
   C37        1.0     0.847968     0.193137     0.696631    Uiso  ? C
   H19        1.0     0.856773     0.187544     0.676824    Uiso  ? H
   C38        1.0     0.859295     0.182889     0.720812    Uiso  ? C
   C39        1.0     0.847559     0.193031     0.745406    Uiso  ? C
   H20        1.0     0.857206     0.184252     0.762411    Uiso  ? H
   C40        1.0     0.879941     0.161462     0.719982    Uiso  ? C
   C41        1.0     0.763570     0.225947     0.816817    Uiso  ? C
   C42        1.0     0.735313     0.213061     0.821139    Uiso  ? C
   C43        1.0     0.713234     0.219080     0.803758    Uiso  ? C
   H21        1.0     0.716751     0.233861     0.787151    Uiso  ? H
   C44        1.0     0.689671     0.204772     0.805771    Uiso  ? C
   H22        1.0     0.672629     0.208051     0.791203    Uiso  ? H
   C45        1.0     0.686429     0.186571     0.828656    Uiso  ? C
   H23        1.0     0.665075     0.176895     0.829318    Uiso  ? H
   C46        1.0     0.707929     0.179052     0.845581    Uiso  ? C
   C47        1.0     0.732948     0.193100     0.841621    Uiso  ? C
   H24        1.0     0.748831     0.187773     0.854486    Uiso  ? H
   C48        1.0     0.707903     0.155404     0.864314    Uiso  ? C
   C49        1.0     0.853307     0.271551     0.813888    Uiso  ? C
   C50        1.0     0.880448     0.284487     0.810625    Uiso  ? C
   C51        1.0     0.881383     0.311360     0.800665    Uiso  ? C
   H25        1.0     0.864161     0.324193     0.793859    Uiso  ? H
   C52        1.0     0.111783     0.324009     0.798062    Uiso  ? C
   H26        1.0     0.111891     0.345708     0.789913    Uiso  ? H
   C53        1.0     0.136282     0.310692     0.804093    Uiso  ? C
   H27        1.0     0.154726     0.321318     0.800732    Uiso  ? H
   C54        1.0     0.135552     0.283122     0.814887    Uiso  ? C
   C55        1.0     0.109944     0.270011     0.816108    Uiso  ? C
   H28        1.0     0.110064     0.250040     0.824702    Uiso  ? H
   C56        1.0     0.159945     0.267141     0.818504    Uiso  ? C
   C57        1.0     0.711497     0.880759     0.856508    Uiso  ? C
   C58        1.0     0.713261     0.862047     0.832148    Uiso  ? C
   C59        1.0     0.690609     0.859097     0.815057    Uiso  ? C
   H29        1.0     0.673823     0.873050     0.816232    Uiso  ? H
   C60        1.0     0.693400     0.844359     0.790827    Uiso  ? C
   H30        1.0     0.678605     0.844206     0.775719    Uiso  ? H
   C61        1.0     0.715966     0.829589     0.784355    Uiso  ? C
   H31        1.0     0.716785     0.816165     0.766205    Uiso  ? H
   C62        1.0     0.738092     0.830161     0.803034    Uiso  ? C
   C63        1.0     0.736885     0.848581     0.825446    Uiso  ? C
   H32        1.0     0.755487     0.848748     0.838596    Uiso  ? H
   C64        1.0     0.762297     0.813782     0.796110    Uiso  ? C
   C65        1.0     0.703822     0.869335     0.126464    Uiso  ? C
   C66        1.0     0.703454     0.843942     0.144410    Uiso  ? C
   C67        1.0     0.679374     0.830954     0.151248    Uiso  ? C
   H33        1.0     0.660692     0.836631     0.142106    Uiso  ? H
   C68        1.0     0.679042     0.807967     0.169067    Uiso  ? C
   H34        1.0     0.660717     0.799960     0.176719    Uiso  ? H
   C69        1.0     0.703446     0.796969     0.179799    Uiso  ? C
   H35        1.0     0.703250     0.779338     0.193801    Uiso  ? H
   C70        1.0     0.728021     0.807939     0.169860    Uiso  ? C
   C71        1.0     0.727535     0.832385     0.154879    Uiso  ? C
   H36        1.0     0.747810     0.840272     0.147903    Uiso  ? H
   C72        1.0     0.754340     0.792052     0.173386    Uiso  ? C
   C73        1.0     0.204003     0.225467     0.778113    Uiso  ? C
   C74        1.0     0.199273     0.213840     0.751255    Uiso  ? C
   C75        1.0     0.217895     0.220388     0.729852    Uiso  ? C
   H37        1.0     0.236312     0.232722     0.731612    Uiso  ? H
   C76        1.0     0.216637     0.205996     0.705187    Uiso  ? C
   H38        1.0     0.228959     0.212458     0.688223    Uiso  ? H
   C77        1.0     0.198355     0.184191     0.701139    Uiso  ? C
   H39        1.0     0.197839     0.173648     0.680937    Uiso  ? H
   C78        1.0     0.179669     0.177569     0.722276    Uiso  ? C
   C79        1.0     0.181489     0.190684     0.748591    Uiso  ? C
   H40        1.0     0.166178     0.185209     0.762969    Uiso  ? H
   C80        1.0     0.157946     0.157588     0.718338    Uiso  ? C
   C81        1.0     0.216183     0.271432     0.866601    Uiso  ? C
   C82        1.0     0.222777     0.280329     0.893667    Uiso  ? C
   C83        1.0     0.241715     0.301212     0.897477    Uiso  ? C
   H41        1.0     0.247718     0.312528     0.879381    Uiso  ? H
   C84        1.0     0.252567     0.308478     0.121467    Uiso  ? C
   H42        1.0     0.267125     0.326356     0.123409    Uiso  ? H
   C85        1.0     0.242116     0.297610     0.145683    Uiso  ? C
   H43        1.0     0.250974     0.303091     0.165372    Uiso  ? H
   C86        1.0     0.220967     0.278336     0.143277    Uiso  ? C
   C87        1.0     0.212105     0.270412     0.116349    Uiso  ? C
   H44        1.0     0.195576     0.255463     0.116173    Uiso  ? H
   C88        1.0     0.209059     0.265493     0.167797    Uiso  ? C
   C89        1.0     0.187822     0.202692     0.245184    Uiso  ? C
   C90        1.0     0.180340     0.185340     0.268980    Uiso  ? C
   C91        1.0     0.191794     0.191559     0.295036    Uiso  ? C
   H45        1.0     0.207385     0.206405     0.296861    Uiso  ? H
   C92        1.0     0.182161     0.176848     0.318619    Uiso  ? C
   H46        1.0     0.191232     0.180654     0.338895    Uiso  ? H
   C93        1.0     0.164095     0.155948     0.316379    Uiso  ? C
   H47        1.0     0.158862     0.145215     0.334719    Uiso  ? H
   C94        1.0     0.152661     0.149235     0.290620    Uiso  ? C
   C95        1.0     0.159958     0.164692     0.266991    Uiso  ? C
   H48        1.0     0.151976     0.158401     0.246683    Uiso  ? H
   C96        1.0     0.131476     0.128989     0.289003    Uiso  ? C
   O1         1.0     0.811774     0.250406     0.160006    Uiso  ? O
   O2         1.0     0.785878     0.280243     0.184978    Uiso  ? O
   O3         1.0     0.783251     0.210434     0.179904    Uiso  ? O
   O4         1.0     0.761217     0.240578     0.207357    Uiso  ? O
   O5         1.0     0.818862     0.201728     0.217193    Uiso  ? O
   O6         1.0     0.798643     0.234368     0.243540    Uiso  ? O
   O7         1.0     0.850497     0.240746     0.198769    Uiso  ? O
   O8         1.0     0.825921     0.276674     0.216659    Uiso  ? O
   O9         1.0     0.826620     0.213466     0.795241    Uiso  ? O
   O10        1.0     0.805707     0.247464     0.774055    Uiso  ? O
   O11        1.0     0.786165     0.214736     0.826749    Uiso  ? O
   O12        1.0     0.763460     0.249780     0.804651    Uiso  ? O
   O13        1.0     0.808859     0.249024     0.860456    Uiso  ? O
   O14        1.0     0.789104     0.284428     0.836842    Uiso  ? O
   O15        1.0     0.850257     0.247824     0.825976    Uiso  ? O
   O16        1.0     0.831735     0.284937     0.804909    Uiso  ? O
   O17        1.0     0.733758     0.887479     0.868505    Uiso  ? O
   O18        1.0     0.687633     0.889668     0.866035    Uiso  ? O
   O19        1.0     0.726292     0.883026     0.121761    Uiso  ? O
   O20        1.0     0.681064     0.880599     0.116087    Uiso  ? O
   O21        1.0     0.730996     0.140327     0.125570    Uiso  ? O
   O22        1.0     0.685249     0.141826     0.122216    Uiso  ? O
   O23        1.0     0.730607     0.144851     0.874409    Uiso  ? O
   O24        1.0     0.683440     0.143811     0.870567    Uiso  ? O
   O25        1.0     0.193420     0.215114     0.799806    Uiso  ? O
   O26        1.0     0.220971     0.246104     0.781284    Uiso  ? O
   O27        1.0     0.159587     0.241960     0.826009    Uiso  ? O
   O28        1.0     0.184016     0.278029     0.813389    Uiso  ? O
   O29        1.0     0.199385     0.249568     0.864620    Uiso  ? O
   O30        1.0     0.229866     0.279542     0.845068    Uiso  ? O
   O31        1.0     0.224696     0.209300     0.839240    Uiso  ? O
   O32        1.0     0.252203     0.240750     0.818023    Uiso  ? O
   O33        1.0     0.193289     0.243991     0.164052    Uiso  ? O
   O34        1.0     0.219487     0.271397     0.192094    Uiso  ? O
   O35        1.0     0.155701     0.238142     0.200754    Uiso  ? O
   O36        1.0     0.181000     0.268055     0.224880    Uiso  ? O
   O37        1.0     0.180027     0.196263     0.220521    Uiso  ? O
   O38        1.0     0.200982     0.226211     0.249870    Uiso  ? O
   O39        1.0     0.219790     0.200881     0.183442    Uiso  ? O
   O40        1.0     0.241356     0.228390     0.212429    Uiso  ? O
   O41        1.0     0.142200     0.889588     0.734094    Uiso  ? O
   O42        1.0     0.146281     0.896265     0.688542    Uiso  ? O
   O43        1.0     0.885475     0.892802     0.734284    Uiso  ? O
   O44        1.0     0.890257     0.894900     0.687262    Uiso  ? O
   O45        1.0     0.887790     0.148638     0.741464    Uiso  ? O
   O46        1.0     0.890453     0.153428     0.696296    Uiso  ? O
   O47        1.0     0.146645     0.146884     0.740898    Uiso  ? O
   O48        1.0     0.149717     0.151919     0.693994    Uiso  ? O
   O49        1.0     0.837128     0.199491     0.164679    Uiso  ? O
   O50        1.0     0.836693     0.199759     0.849535    Uiso  ? O
   O51        1.0     0.771462     0.116203     0.101739    Uiso  ? O
   O52        1.0     0.176359     0.199348     0.853824    Uiso  ? O
   O53        1.0     0.165786     0.192227     0.166468    Uiso  ? O
   O54        1.0     0.119065     0.115568     0.778949    Uiso  ? O
   Zn1        1.0     0.818848     0.224342     0.186499    Uiso  ? Zn
   Zn2        1.0     0.792641     0.260803     0.217230    Uiso  ? Zn
   Zn3        1.0     0.820700     0.227683     0.829686    Uiso  ? Zn
   Zn4        1.0     0.796151     0.270107     0.802325    Uiso  ? Zn
   Zn5        1.0     0.735005     0.115890     0.898751    Uiso  ? Zn
   Zn6        1.0     0.681735     0.116938     0.895721    Uiso  ? Zn
   Zn7        1.0     0.192604     0.226720     0.835474    Uiso  ? Zn
   Zn8        1.0     0.222836     0.265291     0.812158    Uiso  ? Zn
   Zn9        1.0     0.184813     0.215658     0.188791    Uiso  ? Zn
   Zn10       1.0     0.213289     0.250671     0.222723    Uiso  ? Zn
   Zn11       1.0     0.119831     0.121933     0.741579    Uiso  ? Zn
   Zn12       1.0     0.121292     0.127387     0.686761    Uiso  ? Zn
   C97        1.0     0.201564     0.745114     0.839657    Uiso  ? C
   C98        1.0     0.203459     0.726606     0.863494    Uiso  ? C
   C99        1.0     0.211179     0.698267     0.863081    Uiso  ? C
   H49        1.0     0.215730     0.688315     0.843437    Uiso  ? H
   C100       1.0     0.217547     0.684274     0.886722    Uiso  ? C
   H50        1.0     0.225561     0.663971     0.884547    Uiso  ? H
   C101       1.0     0.213170     0.696570     0.112317    Uiso  ? C
   H51        1.0     0.215519     0.683452     0.130457    Uiso  ? H
   C102       1.0     0.205543     0.724637     0.114147    Uiso  ? C
   C103       1.0     0.201883     0.738363     0.889866    Uiso  ? C
   H52        1.0     0.194301     0.759205     0.891130    Uiso  ? H
   C104       1.0     0.198328     0.736505     0.142212    Uiso  ? C
   C105       1.0     0.241585     0.795642     0.811684    Uiso  ? C
   C106       1.0     0.267468     0.805978     0.823220    Uiso  ? C
   C107       1.0     0.292313     0.793060     0.816030    Uiso  ? C
   H53        1.0     0.292961     0.776153     0.800988    Uiso  ? H
   C108       1.0     0.316790     0.801346     0.827525    Uiso  ? C
   H54        1.0     0.335672     0.793203     0.819397    Uiso  ? H
   C109       1.0     0.317686     0.823846     0.844500    Uiso  ? C
   H55        1.0     0.336686     0.831948     0.851475    Uiso  ? H
   C110       1.0     0.291931     0.835166     0.854133    Uiso  ? C
   C111       1.0     0.267016     0.825690     0.843676    Uiso  ? C
   H56        1.0     0.246307     0.833113     0.849641    Uiso  ? H
   C112       1.0     0.293626     0.857856     0.874662    Uiso  ? C
   C113       1.0     0.195754     0.805831     0.758915    Uiso  ? C
   C114       1.0     0.193146     0.822331     0.733914    Uiso  ? C
   C115       1.0     0.205598     0.814501     0.709437    Uiso  ? C
   H57        1.0     0.214691     0.794505     0.707665    Uiso  ? H
   C116       1.0     0.203335     0.831318     0.686448    Uiso  ? C
   H58        1.0     0.213812     0.825136     0.667661    Uiso  ? H
   C117       1.0     0.187464     0.855135     0.687646    Uiso  ? C
   H59        1.0     0.184461     0.867779     0.669251    Uiso  ? H
   C118       1.0     0.172680     0.862090     0.711430    Uiso  ? C
   C119       1.0     0.177347     0.845680     0.735356    Uiso  ? C
   H60        1.0     0.169546     0.855343     0.754004    Uiso  ? H
   C120       1.0     0.152187     0.882554     0.710416    Uiso  ? C
   C121       1.0     0.154501     0.753469     0.784285    Uiso  ? C
   C122       1.0     0.128243     0.740542     0.774912    Uiso  ? C
   C123       1.0     0.127426     0.714730     0.761881    Uiso  ? C
   H61        1.0     0.146033     0.703818     0.756776    Uiso  ? H
   C124       1.0     0.897284     0.701878     0.756897    Uiso  ? C
   H62        1.0     0.896895     0.682223     0.746980    Uiso  ? H
   C125       1.0     0.872741     0.714546     0.762844    Uiso  ? C
   H63        1.0     0.853516     0.705582     0.756445    Uiso  ? H
   C126       1.0     0.872737     0.741299     0.774033    Uiso  ? C
   C127       1.0     0.102716     0.753031     0.779878    Uiso  ? C
   H64        1.0     0.103560     0.772244     0.789768    Uiso  ? H
   C128       1.0     0.847442     0.757059     0.779761    Uiso  ? C
   C129       1.0     0.183625     0.783171     0.231491    Uiso  ? C
   C130       1.0     0.173667     0.795957     0.256684    Uiso  ? C
   C131       1.0     0.179475     0.782059     0.281480    Uiso  ? C
   H65        1.0     0.189582     0.762425     0.282212    Uiso  ? H
   C132       1.0     0.171713     0.793945     0.306233    Uiso  ? C
   H66        1.0     0.176858     0.784292     0.326214    Uiso  ? H
   C133       1.0     0.156133     0.816995     0.307494    Uiso  ? C
   H67        1.0     0.149100     0.825966     0.326858    Uiso  ? H
   C134       1.0     0.147466     0.829253     0.283150    Uiso  ? C
   C135       1.0     0.156891     0.818557     0.258260    Uiso  ? C
   H68        1.0     0.154264     0.829032     0.240036    Uiso  ? H
   C136       1.0     0.128998     0.852461     0.284452    Uiso  ? C
   C137       1.0     0.239174     0.781826     0.183855    Uiso  ? C
   C138       1.0     0.265465     0.796697     0.180721    Uiso  ? C
   C139       1.0     0.289482     0.788233     0.194047    Uiso  ? C
   H69        1.0     0.287574     0.769129     0.205953    Uiso  ? H
   C140       1.0     0.314523     0.802339     0.190778    Uiso  ? C
   H70        1.0     0.332700     0.794718     0.201431    Uiso  ? H
   C141       1.0     0.315701     0.826984     0.175703    Uiso  ? C
   H71        1.0     0.333356     0.838400     0.174063    Uiso  ? H
   C142       1.0     0.291966     0.834847     0.161701    Uiso  ? C
   C143       1.0     0.267025     0.820144     0.164042    Uiso  ? C
   H72        1.0     0.249856     0.824065     0.151307    Uiso  ? H
   C144       1.0     0.292301     0.858353     0.141856    Uiso  ? C
   C145       1.0     0.147377     0.738692     0.191612    Uiso  ? C
   C146       1.0     0.120282     0.725482     0.196408    Uiso  ? C
   C147       1.0     0.119136     0.699766     0.209508    Uiso  ? C
   H73        1.0     0.137218     0.690656     0.218992    Uiso  ? H
   C148       1.0     0.888209     0.685956     0.212174    Uiso  ? C
   H74        1.0     0.889333     0.666418     0.224481    Uiso  ? H
   C149       1.0     0.863799     0.697625     0.203052    Uiso  ? C
   H75        1.0     0.844000     0.686320     0.204618    Uiso  ? H
   C150       1.0     0.865745     0.722971     0.191099    Uiso  ? C
   C151       1.0     0.891232     0.737269     0.188883    Uiso  ? C
   H76        1.0     0.891412     0.757823     0.182993    Uiso  ? H
   C152       1.0     0.839649     0.737868     0.183694    Uiso  ? C
   C153       1.0     0.294444     0.134912     0.147133    Uiso  ? C
   C154       1.0     0.294294     0.158140     0.166470    Uiso  ? C
   C155       1.0     0.316737     0.163944     0.184563    Uiso  ? C
   H77        1.0     0.337216     0.153507     0.183923    Uiso  ? H
   C156       1.0     0.315329     0.186125     0.202982    Uiso  ? C
   H78        1.0     0.331637     0.190688     0.215711    Uiso  ? H
   C157       1.0     0.291569     0.200875     0.206059    Uiso  ? C
   H79        1.0     0.290494     0.218285     0.219192    Uiso  ? H
   C158       1.0     0.267550     0.193407     0.190295    Uiso  ? C
   C159       1.0     0.269862     0.171483     0.170543    Uiso  ? C
   H80        1.0     0.252158     0.165653     0.158677    Uiso  ? H
   C160       1.0     0.241352     0.206425     0.196943    Uiso  ? C
   C161       1.0     0.295803     0.135856     0.876831    Uiso  ? C
   C162       1.0     0.296641     0.158418     0.855870    Uiso  ? C
   C163       1.0     0.319779     0.162030     0.839002    Uiso  ? C
   H81        1.0     0.337532     0.149355     0.839630    Uiso  ? H
   C164       1.0     0.319542     0.184990     0.821039    Uiso  ? C
   H82        1.0     0.338168     0.191655     0.810794    Uiso  ? H
   C165       1.0     0.296263     0.202504     0.818817    Uiso  ? C
   H83        1.0     0.299113     0.220617     0.806383    Uiso  ? H
   C166       1.0     0.272792     0.197032     0.834029    Uiso  ? C
   C167       1.0     0.272904     0.174462     0.851665    Uiso  ? C
   H84        1.0     0.256510     0.170653     0.865855    Uiso  ? H
   C168       1.0     0.249693     0.217741     0.831447    Uiso  ? C
   C169       1.0     0.800843     0.786859     0.223714    Uiso  ? C
   C170       1.0     0.805071     0.799361     0.251458    Uiso  ? C
   C171       1.0     0.790961     0.790016     0.274314    Uiso  ? C
   H85        1.0     0.776115     0.774837     0.272407    Uiso  ? H
   C172       1.0     0.795217     0.802423     0.299499    Uiso  ? C
   H86        1.0     0.786349     0.794548     0.317990    Uiso  ? H
   C173       1.0     0.814287     0.823139     0.303180    Uiso  ? C
   H87        1.0     0.816609     0.832387     0.323344    Uiso  ? H
   C174       1.0     0.829613     0.832138     0.280073    Uiso  ? C
   C175       1.0     0.824860     0.820207     0.254392    Uiso  ? C
   H88        1.0     0.836435     0.827984     0.237906    Uiso  ? H
   C176       1.0     0.851255     0.852608     0.283647    Uiso  ? C
   C177       1.0     0.789395     0.747109     0.130661    Uiso  ? C
   C178       1.0     0.785329     0.735154     0.103143    Uiso  ? C
   C179       1.0     0.772073     0.708749     0.899389    Uiso  ? C
   H89        1.0     0.766520     0.696247     0.115841    Uiso  ? H
   C180       1.0     0.762628     0.701418     0.873489    Uiso  ? C
   H90        1.0     0.749511     0.684666     0.870590    Uiso  ? H
   C181       1.0     0.770656     0.716560     0.850717    Uiso  ? C
   H91        1.0     0.760582     0.711680     0.831647    Uiso  ? H
   C182       1.0     0.786279     0.740426     0.854362    Uiso  ? C
   C183       1.0     0.791993     0.749840     0.880873    Uiso  ? C
   H92        1.0     0.800827     0.769401     0.884353    Uiso  ? H
   C184       1.0     0.793516     0.756993     0.829104    Uiso  ? C
   C185       1.0     0.817529     0.814763     0.747522    Uiso  ? C
   C186       1.0     0.827518     0.829809     0.724124    Uiso  ? C
   C187       1.0     0.819717     0.823345     0.697251    Uiso  ? C
   H93        1.0     0.804727     0.807483     0.692209    Uiso  ? H
   C188       1.0     0.828669     0.840140     0.675761    Uiso  ? C
   H94        1.0     0.820590     0.836713     0.655908    Uiso  ? H
   C189       1.0     0.846455     0.861871     0.679947    Uiso  ? C
   H95        1.0     0.853614     0.872260     0.661640    Uiso  ? H
   C190       1.0     0.856521     0.865714     0.706209    Uiso  ? C
   C191       1.0     0.846230     0.851022     0.728781    Uiso  ? C
   H96        1.0     0.852073     0.857204     0.749791    Uiso  ? H
   C192       1.0     0.878682     0.884234     0.709298    Uiso  ? C
   O55        1.0     0.188879     0.769352     0.842451    Uiso  ? O
   O56        1.0     0.208785     0.735973     0.815541    Uiso  ? O
   O57        1.0     0.219082     0.807845     0.819618    Uiso  ? O
   O58        1.0     0.240943     0.773395     0.797441    Uiso  ? O
   O59        1.0     0.185216     0.813054     0.782452    Uiso  ? O
   O60        1.0     0.208736     0.782110     0.757196    Uiso  ? O
   O61        1.0     0.154078     0.776116     0.798567    Uiso  ? O
   O62        1.0     0.176662     0.742957     0.777050    Uiso  ? O
   O63        1.0     0.179970     0.797061     0.209618    Uiso  ? O
   O64        1.0     0.192962     0.757969     0.229988    Uiso  ? O
   O65        1.0     0.217345     0.793136     0.172059    Uiso  ? O
   O66        1.0     0.236165     0.758933     0.197072    Uiso  ? O
   O67        1.0     0.185258     0.760089     0.143510    Uiso  ? O
   O68        1.0     0.208423     0.725042     0.164659    Uiso  ? O
   O69        1.0     0.150588     0.763768     0.184473    Uiso  ? O
   O70        1.0     0.169552     0.725126     0.197148    Uiso  ? O
   O71        1.0     0.271768     0.124040     0.138677    Uiso  ? O
   O72        1.0     0.318156     0.127601     0.137074    Uiso  ? O
   O73        1.0     0.272422     0.126422     0.885221    Uiso  ? O
   O74        1.0     0.318520     0.126939     0.885131    Uiso  ? O
   O75        1.0     0.270713     0.866514     0.884678    Uiso  ? O
   O76        1.0     0.317165     0.868343     0.883927    Uiso  ? O
   O77        1.0     0.269089     0.866129     0.130945    Uiso  ? O
   O78        1.0     0.315629     0.869145     0.135952    Uiso  ? O
   O79        1.0     0.812079     0.798608     0.203590    Uiso  ? O
   O80        1.0     0.789456     0.763638     0.221038    Uiso  ? O
   O81        1.0     0.839727     0.762299     0.171661    Uiso  ? O
   O82        1.0     0.816564     0.727704     0.190569    Uiso  ? O
   O83        1.0     0.801279     0.771523     0.133799    Uiso  ? O
   O84        1.0     0.780631     0.733755     0.151923    Uiso  ? O
   O85        1.0     0.777221     0.802358     0.165832    Uiso  ? O
   O86        1.0     0.753060     0.767385     0.183999    Uiso  ? O
   O87        1.0     0.810315     0.777960     0.832146    Uiso  ? O
   O88        1.0     0.785159     0.751136     0.804498    Uiso  ? O
   O89        1.0     0.847479     0.779038     0.796114    Uiso  ? O
   O90        1.0     0.824370     0.749807     0.768088    Uiso  ? O
   O91        1.0     0.824531     0.822826     0.772011    Uiso  ? O
   O92        1.0     0.803204     0.791649     0.744500    Uiso  ? O
   O93        1.0     0.786212     0.820990     0.807264    Uiso  ? O
   O94        1.0     0.760461     0.791968     0.779575    Uiso  ? O
   O95        1.0     0.865459     0.124303     0.265838    Uiso  ? O
   O96        1.0     0.860426     0.120405     0.312615    Uiso  ? O
   O97        1.0     0.121902     0.121407     0.265566    Uiso  ? O
   O98        1.0     0.121295     0.117858     0.311290    Uiso  ? O
   O99        1.0     0.120547     0.864641     0.260946    Uiso  ? O
   O100       1.0     0.115660     0.858984     0.306568    Uiso  ? O
   O101       1.0     0.863914     0.862208     0.262060    Uiso  ? O
   O102       1.0     0.856417     0.862065     0.308152    Uiso  ? O
   O103       1.0     0.163110     0.818987     0.833704    Uiso  ? O
   O104       1.0     0.167174     0.812600     0.154220    Uiso  ? O
   O105       1.0     0.230083     0.105341     0.110626    Uiso  ? O
   O106       1.0     0.830388     0.812361     0.152076    Uiso  ? O
   O107       1.0     0.836677     0.826201     0.826565    Uiso  ? O
   O108       1.0     0.886081     0.895955     0.222547    Uiso  ? O
   Zn13       1.0     0.183472     0.793839     0.813935    Uiso  ? Zn
   Zn14       1.0     0.210564     0.755699     0.784829    Uiso  ? Zn
   Zn15       1.0     0.181736     0.781718     0.174776    Uiso  ? Zn
   Zn16       1.0     0.203872     0.738196     0.199908    Uiso  ? Zn
   Zn17       1.0     0.265606     0.895619     0.110737    Uiso  ? Zn
   Zn18       1.0     0.321282     0.895695     0.110585    Uiso  ? Zn
   Zn19       1.0     0.810270     0.785531     0.166458    Uiso  ? Zn
   Zn20       1.0     0.781927     0.743435     0.188498    Uiso  ? Zn
   Zn21       1.0     0.818827     0.804038     0.804244    Uiso  ? Zn
   Zn22       1.0     0.789675     0.768855     0.771116    Uiso  ? Zn
   Zn23       1.0     0.888679     0.890829     0.259916    Uiso  ? Zn
   Zn24       1.0     0.885322     0.887411     0.313805    Uiso  ? Zn
   H97        1.0     0.147007     0.809499     0.152276    Uiso  ? H
   H98        1.0     0.173046     0.812111     0.135216    Uiso  ? H
   H99        1.0     0.828360     0.200681     0.867397    Uiso  ? H
   H100       1.0     0.831821     0.182042     0.840456    Uiso  ? H
   H101       1.0     0.120985     0.890163     0.780734    Uiso  ? H
   H102       1.0     0.895393     0.114821     0.785827    Uiso  ? H
   H103       1.0     0.163639     0.208848     0.865732    Uiso  ? H
   H104       1.0     0.189247     0.189320     0.865119    Uiso  ? H
   H105       1.0     0.868669     0.106553     0.218154    Uiso  ? H
   H106       1.0     0.103428     0.118290     0.219409    Uiso  ? H
   H107       1.0     0.828808     0.180985     0.164843    Uiso  ? H
   H108       1.0     0.856409     0.198538     0.172493    Uiso  ? H
   H109       1.0     0.165359     0.200527     0.148327    Uiso  ? H
   H110       1.0     0.177570     0.175893     0.166033    Uiso  ? H
   H111       1.0     0.832696     0.806557     0.133215    Uiso  ? H
   H112       1.0     0.817991     0.828070     0.152358    Uiso  ? H
   H113       1.0     0.779868     0.124007     0.886612    Uiso  ? H
   H114       1.0     0.776041     0.892099     0.103939    Uiso  ? H
   H115       1.0     0.849288     0.814546     0.835239    Uiso  ? H
   H116       1.0     0.824633     0.831032     0.842349    Uiso  ? H
   H117       1.0     0.224038     0.107699     0.891892    Uiso  ? H
   H118       1.0     0.221824     0.880980     0.114372    Uiso  ? H
   H119       1.0     0.147442     0.823443     0.823555    Uiso  ? H
   H120       1.0     0.175296     0.835497     0.831829    Uiso  ? H
   C193       1.0     0.748910     0.368717     0.544484    Uiso  ? C
   C194       1.0     0.730589     0.384653     0.562035    Uiso  ? C
   C195       1.0     0.707968     0.373261     0.573504    Uiso  ? C
   H121       1.0     0.702174     0.352957     0.568289    Uiso  ? H
   C196       1.0     0.690260     0.388553     0.590345    Uiso  ? C
   H122       1.0     0.672920     0.380868     0.602098    Uiso  ? H
   C197       1.0     0.696237     0.416054     0.595113    Uiso  ? C
   H123       1.0     0.683368     0.428878     0.608554    Uiso  ? H
   C198       1.0     0.719402     0.428596     0.583560    Uiso  ? C
   C199       1.0     0.736579     0.411982     0.567330    Uiso  ? C
   H124       1.0     0.754722     0.420838     0.557490    Uiso  ? H
   C200       1.0     0.724550     0.459288     0.585625    Uiso  ? C
   C201       1.0     0.751539     0.362216     0.474827    Uiso  ? C
   C202       1.0     0.735493     0.374010     0.453005    Uiso  ? C
   C203       1.0     0.714244     0.360079     0.441103    Uiso  ? C
   H125       1.0     0.706713     0.340854     0.449986    Uiso  ? H
   C204       1.0     0.698345     0.371348     0.420537    Uiso  ? C
   H126       1.0     0.681124     0.358646     0.410910    Uiso  ? H
   C205       1.0     0.702718     0.396686     0.411403    Uiso  ? C
   H127       1.0     0.689268     0.404299     0.395663    Uiso  ? H
   C206       1.0     0.724497     0.412724     0.423111    Uiso  ? C
   C207       1.0     0.741005     0.400825     0.444084    Uiso  ? C
   H128       1.0     0.757842     0.411951     0.453402    Uiso  ? H
   C208       1.0     0.730830     0.440423     0.415140    Uiso  ? C
   C209       1.0     0.808853     0.320601     0.481866    Uiso  ? C
   C210       1.0     0.828287     0.303387     0.463432    Uiso  ? C
   C211       1.0     0.822121     0.276612     0.456119    Uiso  ? C
   H129       1.0     0.804709     0.265000     0.464975    Uiso  ? H
   C212       1.0     0.839576     0.263498     0.437709    Uiso  ? C
   H130       1.0     0.834892     0.242441     0.433298    Uiso  ? H
   C213       1.0     0.863740     0.275492     0.428704    Uiso  ? C
   H131       1.0     0.877316     0.263048     0.417254    Uiso  ? H
   C214       1.0     0.870654     0.301778     0.436841    Uiso  ? C
   C215       1.0     0.851811     0.316050     0.453079    Uiso  ? C
   H132       1.0     0.856347     0.336810     0.458245    Uiso  ? H
   C216       1.0     0.103225     0.314413     0.430838    Uiso  ? C
   C217       1.0     0.805057     0.326617     0.553608    Uiso  ? C
   C218       1.0     0.821142     0.317131     0.577513    Uiso  ? C
   C219       1.0     0.811243     0.295981     0.594855    Uiso  ? C
   H133       1.0     0.791194     0.286501     0.591312    Uiso  ? H
   C220       1.0     0.826766     0.287877     0.618979    Uiso  ? C
   H134       1.0     0.819661     0.272150     0.633976    Uiso  ? H
   C221       1.0     0.852142     0.299417     0.624053    Uiso  ? C
   H135       1.0     0.862759     0.291593     0.642014    Uiso  ? H
   C222       1.0     0.862636     0.319442     0.606682    Uiso  ? C
   C223       1.0     0.847976     0.326625     0.583940    Uiso  ? C
   H136       1.0     0.857204     0.342040     0.570276    Uiso  ? H
   C224       1.0     0.888636     0.332568     0.611801    Uiso  ? C
   C225       1.0     0.739903     0.560338     0.591249    Uiso  ? C
   C226       1.0     0.744746     0.590346     0.596025    Uiso  ? C
   C227       1.0     0.722454     0.607148     0.604852    Uiso  ? C
   H137       1.0     0.702319     0.600142     0.605406    Uiso  ? H
   C228       1.0     0.726635     0.635172     0.609119    Uiso  ? C
   H138       1.0     0.710816     0.649352     0.616114    Uiso  ? H
   C229       1.0     0.752574     0.646130     0.604596    Uiso  ? C
   H139       1.0     0.755550     0.665549     0.611797    Uiso  ? H
   C230       1.0     0.774467     0.629965     0.597133    Uiso  ? C
   C231       1.0     0.770462     0.601361     0.594207    Uiso  ? C
   H140       1.0     0.788612     0.589215     0.589084    Uiso  ? H
   C232       1.0     0.801728     0.641338     0.591406    Uiso  ? C
   C233       1.0     0.706801     0.513815     0.546406    Uiso  ? C
   C234       1.0     0.693876     0.510125     0.519281    Uiso  ? C
   C235       1.0     0.665227     0.506709     0.516454    Uiso  ? C
   H141       1.0     0.651889     0.506108     0.534463    Uiso  ? H
   C236       1.0     0.653934     0.505482     0.490149    Uiso  ? C
   H142       1.0     0.631848     0.505938     0.489139    Uiso  ? H
   C237       1.0     0.670078     0.504575     0.467759    Uiso  ? C
   H143       1.0     0.659280     0.506406     0.448007    Uiso  ? H
   C238       1.0     0.698550     0.506382     0.470049    Uiso  ? C
   C239       1.0     0.710110     0.508747     0.495583    Uiso  ? C
   H144       1.0     0.731376     0.509097     0.498421    Uiso  ? H
   C240       1.0     0.715667     0.502684     0.444789    Uiso  ? C
   C241       1.0     0.745672     0.503939     0.638191    Uiso  ? C
   C242       1.0     0.758368     0.497423     0.663572    Uiso  ? C
   C243       1.0     0.743192     0.492212     0.688047    Uiso  ? C
   H145       1.0     0.720727     0.489461     0.686751    Uiso  ? H
   C244       1.0     0.757640     0.487647     0.712610    Uiso  ? C
   H146       1.0     0.747320     0.480893     0.730928    Uiso  ? H
   C245       1.0     0.784629     0.495463     0.714550    Uiso  ? C
   H147       1.0     0.793649     0.492458     0.734675    Uiso  ? H
   C246       1.0     0.800240     0.500300     0.690883    Uiso  ? C
   C247       1.0     0.787397     0.498897     0.664878    Uiso  ? C
   H148       1.0     0.799870     0.502154     0.646772    Uiso  ? H
   C248       1.0     0.830212     0.503929     0.691827    Uiso  ? C
   C249       1.0     0.750570     0.538182     0.389444    Uiso  ? C
   C250       1.0     0.757155     0.566316     0.379126    Uiso  ? C
   C251       1.0     0.739960     0.577840     0.359106    Uiso  ? C
   H149       1.0     0.719500     0.568027     0.351820    Uiso  ? H
   C252       1.0     0.746138     0.603076     0.348725    Uiso  ? C
   H150       1.0     0.734226     0.612073     0.331873    Uiso  ? H
   C253       1.0     0.770486     0.615957     0.353784    Uiso  ? C
   H151       1.0     0.777822     0.634518     0.342884    Uiso  ? H
   C254       1.0     0.787984     0.605862     0.373690    Uiso  ? C
   C255       1.0     0.781340     0.581034     0.385676    Uiso  ? C
   H152       1.0     0.793831     0.573007     0.402344    Uiso  ? H
   C256       1.0     0.815759     0.618729     0.378548    Uiso  ? C
   C257       1.0     0.766997     0.471403     0.363007    Uiso  ? C
   C258       1.0     0.782293     0.463882     0.337714    Uiso  ? C
   C259       1.0     0.768696     0.452231     0.315363    Uiso  ? C
   H153       1.0     0.746690     0.449849     0.316735    Uiso  ? H
   C260       1.0     0.783272     0.444254     0.291826    Uiso  ? C
   H154       1.0     0.772568     0.431528     0.276861    Uiso  ? H
   C261       1.0     0.811879     0.449998     0.290191    Uiso  ? C
   H155       1.0     0.822589     0.445570     0.270775    Uiso  ? H
   C262       1.0     0.825952     0.460776     0.313907    Uiso  ? C
   C263       1.0     0.810791     0.468408     0.337195    Uiso  ? C
   H156       1.0     0.821283     0.474516     0.355600    Uiso  ? H
   C264       1.0     0.856198     0.464393     0.313022    Uiso  ? C
   C265       1.0     0.874953     0.561246     0.688421    Uiso  ? C
   C266       1.0     0.870948     0.591640     0.682617    Uiso  ? C
   C267       1.0     0.865486     0.608669     0.702836    Uiso  ? C
   H157       1.0     0.864100     0.600874     0.723361    Uiso  ? H
   C268       1.0     0.862941     0.636513     0.700013    Uiso  ? C
   H158       1.0     0.861636     0.651603     0.716130    Uiso  ? H
   C269       1.0     0.862243     0.647336     0.673385    Uiso  ? C
   H159       1.0     0.859516     0.668577     0.672009    Uiso  ? H
   C270       1.0     0.864840     0.629348     0.650623    Uiso  ? C
   C271       1.0     0.868468     0.600715     0.655231    Uiso  ? C
   H160       1.0     0.869863     0.586285     0.639342    Uiso  ? H
   C272       1.0     0.859862     0.639727     0.622546    Uiso  ? C
   C273       1.0     0.888599     0.462232     0.703936    Uiso  ? C
   C274       1.0     0.892760     0.432372     0.707722    Uiso  ? C
   C275       1.0     0.883842     0.417794     0.731755    Uiso  ? C
   H161       1.0     0.873522     0.425726     0.749210    Uiso  ? H
   C276       1.0     0.889255     0.390379     0.733624    Uiso  ? C
   H162       1.0     0.883593     0.380715     0.753189    Uiso  ? H
   C277       1.0     0.104504     0.375238     0.711676    Uiso  ? C
   H163       1.0     0.104685     0.352053     0.713743    Uiso  ? H
   C278       1.0     0.112671     0.389332     0.688196    Uiso  ? C
   C279       1.0     0.107925     0.417595     0.686311    Uiso  ? C
   H164       1.0     0.112806     0.428635     0.667595    Uiso  ? H
   C280       1.0     0.122488     0.374997     0.663147    Uiso  ? C
   C281       1.0     0.154597     0.330592     0.577472    Uiso  ? C
   C282       1.0     0.167360     0.317199     0.553134    Uiso  ? C
   C283       1.0     0.183744     0.296005     0.557147    Uiso  ? C
   H165       1.0     0.188542     0.286685     0.575689    Uiso  ? H
   C284       1.0     0.192602     0.280278     0.535244    Uiso  ? C
   H166       1.0     0.206741     0.262306     0.538396    Uiso  ? H
   C285       1.0     0.184833     0.287310     0.508679    Uiso  ? C
   H167       1.0     0.192017     0.274576     0.492136    Uiso  ? H
   C286       1.0     0.166174     0.309073     0.504636    Uiso  ? C
   C287       1.0     0.157402     0.323072     0.527330    Uiso  ? C
   H168       1.0     0.144739     0.339227     0.524858    Uiso  ? H
   C288       1.0     0.159101     0.318624     0.476180    Uiso  ? C
   O109       1.0     0.771885     0.379732     0.535113    Uiso  ? O
   O110       1.0     0.742751     0.342721     0.538731    Uiso  ? O
   O111       1.0     0.773843     0.374486     0.482920    Uiso  ? O
   O112       1.0     0.743908     0.339920     0.487747    Uiso  ? O
   O113       1.0     0.816078     0.344904     0.487622    Uiso  ? O
   O114       1.0     0.789718     0.306983     0.493641    Uiso  ? O
   O115       1.0     0.814469     0.347431     0.538983    Uiso  ? O
   O116       1.0     0.781694     0.314441     0.547083    Uiso  ? O
   O117       1.0     0.758171     0.545662     0.579627    Uiso  ? O
   O118       1.0     0.719138     0.550102     0.604134    Uiso  ? O
   O119       1.0     0.733964     0.511601     0.548076    Uiso  ? O
   O120       1.0     0.691010     0.515919     0.568559    Uiso  ? O
   O121       1.0     0.747907     0.469555     0.576783    Uiso  ? O
   O122       1.0     0.706238     0.475827     0.596617    Uiso  ? O
   O123       1.0     0.761264     0.502917     0.616010    Uiso  ? O
   O124       1.0     0.719052     0.507525     0.636170    Uiso  ? O
   O125       1.0     0.766461     0.525041     0.406110    Uiso  ? O
   O126       1.0     0.727858     0.525505     0.380138    Uiso  ? O
   O127       1.0     0.779247     0.475072     0.386079    Uiso  ? O
   O128       1.0     0.741964     0.479145     0.360018    Uiso  ? O
   O129       1.0     0.753340     0.452660     0.424131    Uiso  ? O
   O130       1.0     0.713935     0.453727     0.398875    Uiso  ? O
   O131       1.0     0.742033     0.499271     0.447189    Uiso  ? O
   O132       1.0     0.703769     0.500245     0.420533    Uiso  ? O
   O133       1.0     0.876544     0.543947     0.666878    Uiso  ? O
   O134       1.0     0.876317     0.552006     0.713332    Uiso  ? O
   O135       1.0     0.844862     0.504047     0.669621    Uiso  ? O
   O136       1.0     0.842423     0.507962     0.714992    Uiso  ? O
   O137       1.0     0.884811     0.470689     0.679440    Uiso  ? O
   O138       1.0     0.886647     0.478891     0.724132    Uiso  ? O
   O139       1.0     0.123913     0.512752     0.672185    Uiso  ? O
   O140       1.0     0.120618     0.520946     0.718109    Uiso  ? O
   O141       1.0     0.122795     0.386893     0.639263    Uiso  ? O
   O142       1.0     0.130610     0.348889     0.664196    Uiso  ? O
   O143       1.0     0.894777     0.356250     0.601712    Uiso  ? O
   O144       1.0     0.111716     0.320490     0.628618    Uiso  ? O
   O145       1.0     0.142840     0.354200     0.576241    Uiso  ? O
   O146       1.0     0.159587     0.319319     0.601976    Uiso  ? O
   O147       1.0     0.167608     0.384107     0.612837    Uiso  ? O
   O148       1.0     0.178054     0.351291     0.644502    Uiso  ? O
   O149       1.0     0.889538     0.651635     0.562851    Uiso  ? O
   O150       1.0     0.876251     0.692794     0.581781    Uiso  ? O
   O151       1.0     0.843891     0.645627     0.533252    Uiso  ? O
   O152       1.0     0.828203     0.686340     0.550632    Uiso  ? O
   O153       1.0     0.819152     0.626024     0.577748    Uiso  ? O
   O154       1.0     0.807749     0.667299     0.596110    Uiso  ? O
   O155       1.0     0.863963     0.623634     0.600835    Uiso  ? O
   O156       1.0     0.852841     0.665576     0.618120    Uiso  ? O
   O157       1.0     0.818345     0.398434     0.510012    Uiso  ? O
   O158       1.0     0.790536     0.503242     0.563609    Uiso  ? O
   O159       1.0     0.794299     0.489076     0.434710    Uiso  ? O
   O160       1.0     0.883251     0.500531     0.628166    Uiso  ? O
   O161       1.0     0.124084     0.404058     0.586653    Uiso  ? O
   O162       1.0     0.865386     0.600966     0.554001    Uiso  ? O
   Zn25       1.0     0.796979     0.366261     0.511274    Uiso  ? Zn
   Zn26       1.0     0.762892     0.322375     0.515542    Uiso  ? Zn
   Zn27       1.0     0.755620     0.507155     0.578122    Uiso  ? Zn
   Zn28       1.0     0.705208     0.513320     0.601927    Uiso  ? Zn
   Zn29       1.0     0.763168     0.488254     0.416317    Uiso  ? Zn
   Zn30       1.0     0.719145     0.490025     0.388062    Uiso  ? Zn
   Zn31       1.0     0.881209     0.507016     0.666218    Uiso  ? Zn
   Zn32       1.0     0.879371     0.516303     0.721990    Uiso  ? Zn
   Zn33       1.0     0.132659     0.373503     0.605854    Uiso  ? Zn
   Zn34       1.0     0.146573     0.330450     0.636204    Uiso  ? Zn
   Zn35       1.0     0.854491     0.633674     0.567236    Uiso  ? Zn
   Zn36       1.0     0.841340     0.682847     0.587587    Uiso  ? Zn
   C289       1.0     0.251191     0.621424     0.457566    Uiso  ? C
   C290       1.0     0.269239     0.605363     0.439568    Uiso  ? C
   C291       1.0     0.293133     0.616773     0.428230    Uiso  ? C
   H169       1.0     0.297150     0.637867     0.434426    Uiso  ? H
   C292       1.0     0.310402     0.602068     0.412948    Uiso  ? C
   H170       1.0     0.328652     0.611693     0.404771    Uiso  ? H
   C293       1.0     0.304154     0.574968     0.407514    Uiso  ? C
   H171       1.0     0.316263     0.564446     0.392623    Uiso  ? H
   C294       1.0     0.280781     0.561958     0.417761    Uiso  ? C
   C295       1.0     0.262388     0.578276     0.432625    Uiso  ? C
   H172       1.0     0.243748     0.570710     0.440690    Uiso  ? H
   C296       1.0     0.275541     0.532229     0.414520    Uiso  ? C
   C297       1.0     0.242486     0.628884     0.529248    Uiso  ? C
   C298       1.0     0.255163     0.618368     0.554318    Uiso  ? C
   C299       1.0     0.273352     0.635328     0.568399    Uiso  ? C
   H173       1.0     0.276286     0.657632     0.563300    Uiso  ? H
   C300       1.0     0.287372     0.624689     0.591294    Uiso  ? C
   H174       1.0     0.301317     0.637284     0.603470    Uiso  ? H
   C301       1.0     0.281920     0.598500     0.600451    Uiso  ? C
   H175       1.0     0.292189     0.591668     0.619189    Uiso  ? H
   C302       1.0     0.264432     0.580995     0.585968    Uiso  ? C
   C303       1.0     0.250719     0.591503     0.562855    Uiso  ? C
   H176       1.0     0.236392     0.578730     0.551429    Uiso  ? H
   C304       1.0     0.261257     0.553151     0.594898    Uiso  ? C
   C305       1.0     0.188857     0.673968     0.519157    Uiso  ? C
   C306       1.0     0.169903     0.687931     0.537482    Uiso  ? C
   C307       1.0     0.175082     0.714951     0.545658    Uiso  ? C
   H177       1.0     0.193972     0.724149     0.540530    Uiso  ? H
   C308       1.0     0.154826     0.728767     0.559862    Uiso  ? C
   H178       1.0     0.159348     0.750012     0.566661    Uiso  ? H
   C309       1.0     0.130177     0.717398     0.567794    Uiso  ? C
   H179       1.0     0.117335     0.732596     0.577691    Uiso  ? H
   C310       1.0     0.126130     0.689160     0.563720    Uiso  ? C
   C311       1.0     0.146168     0.674532     0.548536    Uiso  ? C
   H180       1.0     0.143971     0.651938     0.544907    Uiso  ? H
   C312       1.0     0.894908     0.676889     0.571981    Uiso  ? C
   C313       1.0     0.194008     0.670936     0.450366    Uiso  ? C
   C314       1.0     0.179295     0.680330     0.425660    Uiso  ? C
   C315       1.0     0.187358     0.704300     0.411239    Uiso  ? C
   H181       1.0     0.204547     0.714955     0.418204    Uiso  ? H
   C316       1.0     0.170678     0.714514     0.389935    Uiso  ? C
   H182       1.0     0.175147     0.733357     0.379204    Uiso  ? H
   C317       1.0     0.145915     0.701129     0.383597    Uiso  ? C
   H183       1.0     0.129938     0.713757     0.373834    Uiso  ? H
   C318       1.0     0.138079     0.676810     0.398658    Uiso  ? C
   C319       1.0     0.155274     0.665694     0.418102    Uiso  ? C
   H184       1.0     0.148499     0.645678     0.427586    Uiso  ? H
   C320       1.0     0.110808     0.662078     0.393198    Uiso  ? C
   C321       1.0     0.261071     0.431035     0.419897    Uiso  ? C
   C322       1.0     0.257079     0.400938     0.419576    Uiso  ? C
   C323       1.0     0.280646     0.383021     0.417938    Uiso  ? C
   H185       1.0     0.300431     0.390086     0.415504    Uiso  ? H
   C324       1.0     0.276071     0.354979     0.420754    Uiso  ? C
   H186       1.0     0.294121     0.341827     0.420140    Uiso  ? H
   C325       1.0     0.249547     0.344929     0.424211    Uiso  ? C
   H187       1.0     0.245974     0.322890     0.425454    Uiso  ? H
   C326       1.0     0.226289     0.362864     0.423552    Uiso  ? C
   C327       1.0     0.229952     0.390743     0.420046    Uiso  ? C
   H188       1.0     0.212816     0.403914     0.420473    Uiso  ? H
   C328       1.0     0.197367     0.352601     0.423638    Uiso  ? C
   C329       1.0     0.283643     0.480032     0.463117    Uiso  ? C
   C330       1.0     0.294889     0.478427     0.491936    Uiso  ? C
   C331       1.0     0.324373     0.475698     0.494332    Uiso  ? C
   H189       1.0     0.337310     0.472004     0.477718    Uiso  ? H
   C332       1.0     0.334955     0.472730     0.520416    Uiso  ? C
   H190       1.0     0.356242     0.468907     0.524077    Uiso  ? H
   C333       1.0     0.317651     0.474388     0.542998    Uiso  ? C
   H191       1.0     0.328449     0.474692     0.562796    Uiso  ? H
   C334       1.0     0.290085     0.479190     0.540224    Uiso  ? C
   C335       1.0     0.279078     0.481604     0.514575    Uiso  ? C
   H192       1.0     0.257964     0.483696     0.511347    Uiso  ? H
   C336       1.0     0.275345     0.487097     0.565034    Uiso  ? C
   C337       1.0     0.243858     0.486756     0.369943    Uiso  ? C
   C338       1.0     0.231909     0.490881     0.342314    Uiso  ? C
   C339       1.0     0.247472     0.494293     0.319024    Uiso  ? C
   H193       1.0     0.268779     0.494126     0.322152    Uiso  ? H
   C340       1.0     0.237236     0.498642     0.292940    Uiso  ? C
   H194       1.0     0.249866     0.507240     0.276673    Uiso  ? H
   C341       1.0     0.209237     0.494925     0.290264    Uiso  ? C
   H195       1.0     0.202155     0.493854     0.268567    Uiso  ? H
   C342       1.0     0.191257     0.491141     0.312139    Uiso  ? C
   C343       1.0     0.203345     0.490845     0.338595    Uiso  ? C
   H196       1.0     0.190110     0.488841     0.357673    Uiso  ? H
   C344       1.0     0.161472     0.485914     0.309377    Uiso  ? C
   C345       1.0     0.247883     0.453601     0.621448    Uiso  ? C
   C346       1.0     0.242715     0.425630     0.633029    Uiso  ? C
   C347       1.0     0.261229     0.414752     0.651208    Uiso  ? C
   H197       1.0     0.281031     0.423898     0.654753    Uiso  ? H
   C348       1.0     0.254276     0.390252     0.665357    Uiso  ? C
   H198       1.0     0.271119     0.381976     0.677586    Uiso  ? H
   C349       1.0     0.229521     0.376763     0.657590    Uiso  ? C
   H199       1.0     0.226552     0.356651     0.665095    Uiso  ? H
   C350       1.0     0.210265     0.387836     0.639068    Uiso  ? C
   C351       1.0     0.217899     0.413067     0.626581    Uiso  ? C
   H200       1.0     0.202685     0.422929     0.614027    Uiso  ? H
   C352       1.0     0.183449     0.374842     0.632185    Uiso  ? C
   C353       1.0     0.226005     0.514457     0.649854    Uiso  ? C
   C354       1.0     0.210484     0.518887     0.675125    Uiso  ? C
   C355       1.0     0.223034     0.526392     0.700520    Uiso  ? C
   H201       1.0     0.244602     0.529364     0.701554    Uiso  ? H
   C356       1.0     0.207060     0.533265     0.723159    Uiso  ? C
   H202       1.0     0.217367     0.537718     0.741988    Uiso  ? H
   C357       1.0     0.178453     0.532640     0.721501    Uiso  ? C
   H203       1.0     0.167667     0.539400     0.739958    Uiso  ? H
   C358       1.0     0.165481     0.521404     0.697688    Uiso  ? C
   C359       1.0     0.181249     0.515172     0.674213    Uiso  ? C
   H204       1.0     0.171404     0.509961     0.655526    Uiso  ? H
   C360       1.0     0.135720     0.517963     0.696012    Uiso  ? C
   C361       1.0     0.120951     0.423140     0.318317    Uiso  ? C
   C362       1.0     0.128514     0.393006     0.323281    Uiso  ? C
   C363       1.0     0.134374     0.375541     0.301028    Uiso  ? C
   H205       1.0     0.131185     0.381637     0.280077    Uiso  ? H
   C364       1.0     0.139737     0.346852     0.305957    Uiso  ? C
   H206       1.0     0.143184     0.332517     0.289001    Uiso  ? H
   C365       1.0     0.140463     0.337632     0.333302    Uiso  ? C
   H207       1.0     0.143948     0.315721     0.335663    Uiso  ? H
   C366       1.0     0.137449     0.356763     0.354578    Uiso  ? C
   C367       1.0     0.131037     0.383778     0.349796    Uiso  ? C
   H208       1.0     0.128696     0.397158     0.367361    Uiso  ? H
   C368       1.0     0.141143     0.348735     0.383103    Uiso  ? C
   C369       1.0     0.895744     0.522230     0.306314    Uiso  ? C
   C370       1.0     0.891296     0.552149     0.303123    Uiso  ? C
   C371       1.0     0.893990     0.564233     0.277536    Uiso  ? C
   H209       1.0     0.107781     0.553819     0.261114    Uiso  ? H
   C372       1.0     0.892745     0.592864     0.275248    Uiso  ? C
   H210       1.0     0.891715     0.602352     0.255130    Uiso  ? H
   C373       1.0     0.884468     0.608258     0.297332    Uiso  ? C
   H211       1.0     0.880373     0.629010     0.294402    Uiso  ? H
   C374       1.0     0.881299     0.596699     0.323471    Uiso  ? C
   C375       1.0     0.884292     0.568222     0.326633    Uiso  ? C
   H212       1.0     0.880976     0.559431     0.347024    Uiso  ? H
   C376       1.0     0.873964     0.612930     0.346543    Uiso  ? C
   C377       1.0     0.839633     0.662041     0.427760    Uiso  ? C
   C378       1.0     0.827808     0.676231     0.451783    Uiso  ? C
   C379       1.0     0.814896     0.700992     0.448573    Uiso  ? C
   H213       1.0     0.812441     0.709785     0.428872    Uiso  ? H
   C380       1.0     0.803789     0.714620     0.471603    Uiso  ? C
   H214       1.0     0.790229     0.731429     0.470887    Uiso  ? H
   C381       1.0     0.807980     0.703717     0.497691    Uiso  ? C
   H215       1.0     0.800907     0.713968     0.514792    Uiso  ? H
   C382       1.0     0.824584     0.681023     0.501291    Uiso  ? C
   C383       1.0     0.833377     0.667164     0.477615    Uiso  ? C
   H216       1.0     0.845410     0.649051     0.479476    Uiso  ? H
   C384       1.0     0.831359     0.669616     0.529507    Uiso  ? C
   O163       1.0     0.227932     0.611196     0.466071    Uiso  ? O
   O164       1.0     0.257095     0.646913     0.465186    Uiso  ? O
   O165       1.0     0.222286     0.615270     0.519114    Uiso  ? O
   O166       1.0     0.250447     0.651963     0.518061    Uiso  ? O
   O167       1.0     0.185032     0.647418     0.515031    Uiso  ? O
   O168       1.0     0.210353     0.685510     0.509460    Uiso  ? O
   O169       1.0     0.187873     0.647892     0.461500    Uiso  ? O
   O170       1.0     0.217179     0.681923     0.457912    Uiso  ? O
   O171       1.0     0.240763     0.447555     0.428224    Uiso  ? O
   O172       1.0     0.282905     0.440421     0.407477    Uiso  ? O
   O173       1.0     0.258013     0.486331     0.459858    Uiso  ? O
   O174       1.0     0.299875     0.476481     0.442630    Uiso  ? O
   O175       1.0     0.250811     0.522395     0.422677    Uiso  ? O
   O176       1.0     0.294536     0.514582     0.405223    Uiso  ? O
   O177       1.0     0.229382     0.489998     0.392400    Uiso  ? O
   O178       1.0     0.269040     0.477798     0.371981    Uiso  ? O
   O179       1.0     0.229803     0.465192     0.605177    Uiso  ? O
   O180       1.0     0.268652     0.467979     0.630895    Uiso  ? O
   O181       1.0     0.213798     0.511458     0.626220    Uiso  ? O
   O182       1.0     0.251935     0.513680     0.649936    Uiso  ? O
   O183       1.0     0.240472     0.538153     0.585825    Uiso  ? O
   O184       1.0     0.277342     0.541874     0.612398    Uiso  ? O
   O185       1.0     0.248110     0.489471     0.565277    Uiso  ? O
   O186       1.0     0.289108     0.494884     0.587213    Uiso  ? O
   O187       1.0     0.117378     0.439748     0.339161    Uiso  ? O
   O188       1.0     0.118280     0.432480     0.292711    Uiso  ? O
   O189       1.0     0.145733     0.486787     0.331431    Uiso  ? O
   O190       1.0     0.151512     0.475432     0.287441    Uiso  ? O
   O191       1.0     0.896264     0.512126     0.331634    Uiso  ? O
   O192       1.0     0.107145     0.506292     0.285376    Uiso  ? O
   O193       1.0     0.869278     0.468645     0.335925    Uiso  ? O
   O194       1.0     0.870243     0.462939     0.289723    Uiso  ? O
   O195       1.0     0.874624     0.601283     0.370395    Uiso  ? O
   O196       1.0     0.868297     0.637977     0.343888    Uiso  ? O
   O197       1.0     0.106210     0.637826     0.404217    Uiso  ? O
   O198       1.0     0.886880     0.672860     0.377973    Uiso  ? O
   O199       1.0     0.853291     0.639512     0.431989    Uiso  ? O
   O200       1.0     0.839410     0.672692     0.402833    Uiso  ? O
   O201       1.0     0.832876     0.606653     0.395722    Uiso  ? O
   O202       1.0     0.821553     0.640659     0.364209    Uiso  ? O
   O203       1.0     0.107862     0.339292     0.438441    Uiso  ? O
   O204       1.0     0.122864     0.298785     0.421044    Uiso  ? O
   O205       1.0     0.150183     0.342854     0.472490    Uiso  ? O
   O206       1.0     0.163893     0.302177     0.455735    Uiso  ? O
   O207       1.0     0.175885     0.367795     0.432930    Uiso  ? O
   O208       1.0     0.194141     0.325824     0.419147    Uiso  ? O
   O209       1.0     0.135726     0.365239     0.403248    Uiso  ? O
   O210       1.0     0.153720     0.325785     0.388054    Uiso  ? O
   O211       1.0     0.177915     0.598086     0.486649    Uiso  ? O
   O212       1.0     0.207252     0.491795     0.440026    Uiso  ? O
   O213       1.0     0.197085     0.506864     0.576928    Uiso  ? O
   O214       1.0     0.113247     0.479233     0.376485    Uiso  ? O
   O215       1.0     0.878026     0.589244     0.424464    Uiso  ? O
   O216       1.0     0.130999     0.389884     0.454524    Uiso  ? O
   Zn37       1.0     0.202744     0.626073     0.489452    Uiso  ? Zn
   Zn38       1.0     0.235666     0.669628     0.487573    Uiso  ? Zn
   Zn39       1.0     0.240258     0.486228     0.426844    Uiso  ? Zn
   Zn40       1.0     0.291359     0.477154     0.405263    Uiso  ? Zn
   Zn41       1.0     0.229455     0.502986     0.594356    Uiso  ? Zn
   Zn42       1.0     0.275907     0.505339     0.621785    Uiso  ? Zn
   Zn43       1.0     0.110604     0.476454     0.338249    Uiso  ? Zn
   Zn44       1.0     0.112220     0.469606     0.284665    Uiso  ? Zn
   Zn45       1.0     0.867307     0.618699     0.403563    Uiso  ? Zn
   Zn46       1.0     0.853444     0.659007     0.370468    Uiso  ? Zn
   Zn47       1.0     0.141497     0.357056     0.438883    Uiso  ? Zn
   Zn48       1.0     0.159224     0.308316     0.420061    Uiso  ? Zn
   H217       1.0     0.201938     0.475275     0.449667    Uiso  ? H
   H218       1.0     0.207446     0.507242     0.452780    Uiso  ? H
   H219       1.0     0.786800     0.488510     0.551085    Uiso  ? H
   H220       1.0     0.792320     0.519580     0.551120    Uiso  ? H
   H221       1.0     0.866962     0.585619     0.567843    Uiso  ? H
   H222       1.0     0.884345     0.603562     0.545854    Uiso  ? H
   H223       1.0     0.878347     0.481024     0.623182    Uiso  ? H
   H224       1.0     0.870762     0.512817     0.617774    Uiso  ? H
   H225       1.0     0.144903     0.394453     0.468007    Uiso  ? H
   H226       1.0     0.115823     0.384135     0.466533    Uiso  ? H
   H227       1.0     0.818971     0.405501     0.529170    Uiso  ? H
   H228       1.0     0.807442     0.411546     0.498378    Uiso  ? H
   H229       1.0     0.137286     0.417931     0.592989    Uiso  ? H
   H230       1.0     0.107942     0.409671     0.596272    Uiso  ? H
   H231       1.0     0.889572     0.485540     0.382285    Uiso  ? H
   H232       1.0     0.123584     0.495933     0.380694    Uiso  ? H
   H233       1.0     0.806614     0.502465     0.425699    Uiso  ? H
   H234       1.0     0.790120     0.496442     0.453394    Uiso  ? H
   H235       1.0     0.896511     0.584376     0.418057    Uiso  ? H
   H236       1.0     0.878700     0.592754     0.444544    Uiso  ? H
   H237       1.0     0.186254     0.518769     0.587545    Uiso  ? H
   H238       1.0     0.189388     0.488093     0.577942    Uiso  ? H
   H239       1.0     0.178459     0.588600     0.468998    Uiso  ? H
   H240       1.0     0.159663     0.606040     0.488737    Uiso  ? H
   C385       1.0     0.664940     0.894431     0.394982    Uiso  ? C
   C386       1.0     0.684262     0.883856     0.416587    Uiso  ? C
   C387       1.0     0.711881     0.885569     0.412887    Uiso  ? C
   H241       1.0     0.719320     0.895229     0.394772    Uiso  ? H
   C388       1.0     0.729364     0.871234     0.430624    Uiso  ? C
   H242       1.0     0.751515     0.870617     0.426543    Uiso  ? H
   C389       1.0     0.718819     0.857093     0.452245    Uiso  ? C
   H243       1.0     0.733645     0.847677     0.466032    Uiso  ? H
   C390       1.0     0.690777     0.856353     0.458435    Uiso  ? C
   C391       1.0     0.673151     0.868701     0.439138    Uiso  ? C
   H244       1.0     0.650162     0.866442     0.440377    Uiso  ? H
   C392       1.0     0.680798     0.842912     0.483464    Uiso  ? C
   C393       1.0     0.619848     0.874959     0.341655    Uiso  ? C
   C394       1.0     0.614130     0.846800     0.331685    Uiso  ? C
   C395       1.0     0.628559     0.838326     0.308639    Uiso  ? C
   H245       1.0     0.644278     0.849961     0.298650    Uiso  ? H
   C396       1.0     0.626560     0.810345     0.302369    Uiso  ? C
   H246       1.0     0.637532     0.800503     0.285595    Uiso  ? H
   C397       1.0     0.606901     0.794191     0.315279    Uiso  ? C
   H247       1.0     0.603790     0.772717     0.309592    Uiso  ? H
   C398       1.0     0.593521     0.802996     0.338624    Uiso  ? C
   C399       1.0     0.595849     0.830044     0.346915    Uiso  ? C
   H248       1.0     0.584894     0.837136     0.364479    Uiso  ? H
   C400       1.0     0.575285     0.784331     0.353108    Uiso  ? C
   C401       1.0     0.602103     0.146896     0.331200    Uiso  ? C
   C402       1.0     0.582849     0.162601     0.313991    Uiso  ? C
   C403       1.0     0.587516     0.166738     0.285861    Uiso  ? C
   H249       1.0     0.607690     0.160714     0.275909    Uiso  ? H
   C404       1.0     0.568545     0.181533     0.271158    Uiso  ? C
   H250       1.0     0.573688     0.184066     0.250119    Uiso  ? H
   C405       1.0     0.545771     0.193427     0.283183    Uiso  ? C
   H251       1.0     0.530939     0.202523     0.268525    Uiso  ? H
   C406       1.0     0.537920     0.186393     0.309915    Uiso  ? C
   C407       1.0     0.558395     0.173086     0.325869    Uiso  ? C
   H252       1.0     0.555851     0.172569     0.346915    Uiso  ? H
   C408       1.0     0.509228     0.190304     0.318936    Uiso  ? C
   C409       1.0     0.644294     0.169194     0.383180    Uiso  ? C
   C410       1.0     0.647604     0.196809     0.392043    Uiso  ? C
   C411       1.0     0.662978     0.215230     0.376197    Uiso  ? C
   H253       1.0     0.674234     0.208509     0.357955    Uiso  ? H
   C412       1.0     0.660862     0.243375     0.381351    Uiso  ? C
   H254       1.0     0.667661     0.258309     0.366216    Uiso  ? H
   C413       1.0     0.645738     0.253135     0.403111    Uiso  ? C
   H255       1.0     0.640451     0.274601     0.404990    Uiso  ? H
   C414       1.0     0.632629     0.234934     0.421355    Uiso  ? C
   C415       1.0     0.633529     0.206376     0.415722    Uiso  ? C
   H256       1.0     0.618266     0.193677     0.424419    Uiso  ? H
   C416       1.0     0.614316     0.246654     0.442266    Uiso  ? C
   C417       1.0     0.645695     0.789646     0.559884    Uiso  ? C
   C418       1.0     0.636734     0.774554     0.584335    Uiso  ? C
   C419       1.0     0.650493     0.751617     0.594338    Uiso  ? C
   H257       1.0     0.670297     0.745837     0.586003    Uiso  ? H
   C420       1.0     0.639991     0.737366     0.616210    Uiso  ? C
   H258       1.0     0.650237     0.720348     0.626087    Uiso  ? H
   C421       1.0     0.615487     0.745488     0.629053    Uiso  ? C
   H259       1.0     0.609888     0.735671     0.647843    Uiso  ? H
   C422       1.0     0.600061     0.766815     0.617505    Uiso  ? C
   C423       1.0     0.611072     0.781524     0.595548    Uiso  ? C
   H260       1.0     0.601952     0.799655     0.588657    Uiso  ? H
   C424       1.0     0.575148     0.776838     0.631087    Uiso  ? C
   C425       1.0     0.651268     0.781319     0.487516    Uiso  ? C
   C426       1.0     0.645582     0.763629     0.463507    Uiso  ? C
   C427       1.0     0.665069     0.743799     0.454849    Uiso  ? C
   H261       1.0     0.684703     0.742632     0.465584    Uiso  ? H
   C428       1.0     0.660202     0.724936     0.434909    Uiso  ? C
   H262       1.0     0.674663     0.709642     0.429704    Uiso  ? H
   C429       1.0     0.635446     0.727138     0.420529    Uiso  ? C
   H263       1.0     0.631511     0.713340     0.402845    Uiso  ? H
   C430       1.0     0.616364     0.747111     0.425866    Uiso  ? C
   C431       1.0     0.620457     0.764842     0.448264    Uiso  ? C
   H264       1.0     0.606235     0.780365     0.455133    Uiso  ? H
   C432       1.0     0.590391     0.748113     0.409675    Uiso  ? C
   C433       1.0     0.675330     0.852823     0.553788    Uiso  ? C
   C434       1.0     0.682647     0.873747     0.571441    Uiso  ? C
   C435       1.0     0.709929     0.876482     0.579668    Uiso  ? C
   H265       1.0     0.725339     0.864672     0.571028    Uiso  ? H
   C436       1.0     0.716289     0.895210     0.599706    Uiso  ? C
   H266       1.0     0.737000     0.896339     0.607596    Uiso  ? H
   C437       1.0     0.698807     0.119591     0.608558    Uiso  ? C
   H267       1.0     0.706707     0.134936     0.622673    Uiso  ? H
   C438       1.0     0.671867     0.118933     0.599275    Uiso  ? C
   C439       1.0     0.662375     0.893550     0.579696    Uiso  ? C
   H268       1.0     0.641811     0.891167     0.573907    Uiso  ? H
   C440       1.0     0.650235     0.138741     0.609746    Uiso  ? C
   C441       1.0     0.519811     0.724482     0.412202    Uiso  ? C
   C442       1.0     0.505393     0.705631     0.431266    Uiso  ? C
   C443       1.0     0.513658     0.678453     0.434995    Uiso  ? C
   H269       1.0     0.531417     0.669158     0.422896    Uiso  ? H
   C444       1.0     0.500169     0.661773     0.454643    Uiso  ? C
   H270       1.0     0.507257     0.641234     0.458325    Uiso  ? H
   C445       1.0     0.478139     0.671791     0.470239    Uiso  ? C
   H271       1.0     0.469277     0.658558     0.486103    Uiso  ? H
   C446       1.0     0.468844     0.698686     0.464456    Uiso  ? C
   C447       1.0     0.484501     0.716307     0.447520    Uiso  ? C
   H272       1.0     0.479188     0.737010     0.443697    Uiso  ? H
   C448       1.0     0.447803     0.710482     0.481751    Uiso  ? C
   C449       1.0     0.509414     0.762869     0.350362    Uiso  ? C
   C450       1.0     0.487083     0.768687     0.332744    Uiso  ? C
   C451       1.0     0.487629     0.761015     0.304961    Uiso  ? C
   H273       1.0     0.506261     0.752723     0.296154    Uiso  ? H
   C452       1.0     0.465548     0.766792     0.289588    Uiso  ? C
   H274       1.0     0.465066     0.759167     0.267938    Uiso  ? H
   C453       1.0     0.443690     0.781714     0.299135    Uiso  ? C
   H275       1.0     0.427417     0.787105     0.285027    Uiso  ? H
   C454       1.0     0.443130     0.789666     0.326253    Uiso  ? C
   C455       1.0     0.463831     0.781237     0.343579    Uiso  ? C
   H276       1.0     0.461979     0.785310     0.365480    Uiso  ? H
   C456       1.0     0.419924     0.805774     0.336608    Uiso  ? C
   C457       1.0     0.603747     0.128657     0.661796    Uiso  ? C
   C458       1.0     0.598174     0.104793     0.681119    Uiso  ? C
   C459       1.0     0.608109     0.103162     0.707865    Uiso  ? C
   H277       1.0     0.619680     0.119123     0.716321    Uiso  ? H
   C460       1.0     0.603982     0.872232     0.722431    Uiso  ? C
   H278       1.0     0.612251     0.871062     0.742920    Uiso  ? H
   C461       1.0     0.588097     0.850809     0.712655    Uiso  ? C
   H279       1.0     0.582825     0.834336     0.727468    Uiso  ? H
   C462       1.0     0.578106     0.852747     0.685465    Uiso  ? C
   C463       1.0     0.584691     0.876347     0.669799    Uiso  ? C
   H280       1.0     0.575847     0.877367     0.648967    Uiso  ? H
   C464       1.0     0.560004     0.831177     0.673547    Uiso  ? C
   C465       1.0     0.627275     0.206902     0.599880    Uiso  ? C
   C466       1.0     0.633651     0.229459     0.581156    Uiso  ? C
   C467       1.0     0.652439     0.250171     0.590047    Uiso  ? C
   H281       1.0     0.661007     0.250825     0.611324    Uiso  ? H
   C468       1.0     0.660318     0.269392     0.571815    Uiso  ? C
   H282       1.0     0.676064     0.282921     0.579349    Uiso  ? H
   C469       1.0     0.649137     0.270990     0.545237    Uiso  ? C
   H283       1.0     0.653183     0.287456     0.532167    Uiso  ? H
   C470       1.0     0.628872     0.253035     0.538296    Uiso  ? C
   C471       1.0     0.620353     0.232939     0.556376    Uiso  ? C
   H284       1.0     0.602033     0.221458     0.552089    Uiso  ? H
   C472       1.0     0.610935     0.259184     0.515379    Uiso  ? C
   C473       1.0     0.549496     0.272646     0.436350    Uiso  ? C
   C474       1.0     0.530350     0.279417     0.414931    Uiso  ? C
   C475       1.0     0.525354     0.306307     0.406605    Uiso  ? C
   H285       1.0     0.534858     0.323336     0.418120    Uiso  ? H
   C476       1.0     0.505384     0.311667     0.387130    Uiso  ? C
   H286       1.0     0.500038     0.332744     0.381387    Uiso  ? H
   C477       1.0     0.495913     0.290185     0.371133    Uiso  ? C
   H287       1.0     0.481919     0.294646     0.355367    Uiso  ? H
   C478       1.0     0.500977     0.262435     0.379776    Uiso  ? C
   C479       1.0     0.519801     0.257841     0.401134    Uiso  ? C
   H288       1.0     0.524941     0.234838     0.404987    Uiso  ? H
   C480       1.0     0.486411     0.240059     0.365580    Uiso  ? C
   O217       1.0     0.639866     0.103340     0.400801    Uiso  ? O
   O218       1.0     0.674892     0.108861     0.371202    Uiso  ? O
   O219       1.0     0.606094     0.883541     0.362962    Uiso  ? O
   O220       1.0     0.639306     0.890232     0.331869    Uiso  ? O
   O221       1.0     0.592648     0.138224     0.354713    Uiso  ? O
   O222       1.0     0.627339     0.142893     0.324460    Uiso  ? O
   O223       1.0     0.624237     0.154241     0.393222    Uiso  ? O
   O224       1.0     0.659699     0.159186     0.362735    Uiso  ? O
   O225       1.0     0.629538     0.807164     0.548011    Uiso  ? O
   O226       1.0     0.670912     0.783476     0.549992    Uiso  ? O
   O227       1.0     0.634322     0.799804     0.493484    Uiso  ? O
   O228       1.0     0.675818     0.780232     0.499089    Uiso  ? O
   O229       1.0     0.655058     0.846007     0.490268    Uiso  ? O
   O230       1.0     0.697497     0.827274     0.497713    Uiso  ? O
   O231       1.0     0.652053     0.855642     0.539850    Uiso  ? O
   O232       1.0     0.690374     0.830365     0.550576    Uiso  ? O
   O233       1.0     0.519885     0.750351     0.417068    Uiso  ? O
   O234       1.0     0.535678     0.715458     0.393032    Uiso  ? O
   O235       1.0     0.512642     0.779044     0.371043    Uiso  ? O
   O236       1.0     0.525943     0.743202     0.346012    Uiso  ? O
   O237       1.0     0.561195     0.794861     0.373337    Uiso  ? O
   O238       1.0     0.575757     0.758508     0.348046    Uiso  ? O
   O239       1.0     0.571209     0.765864     0.417562    Uiso  ? O
   O240       1.0     0.586613     0.732661     0.387686    Uiso  ? O
   O241       1.0     0.591724     0.130201     0.637942    Uiso  ? O
   O242       1.0     0.620200     0.148644     0.669650    Uiso  ? O
   O243       1.0     0.627758     0.140460     0.596914    Uiso  ? O
   O244       1.0     0.653709     0.151643     0.631991    Uiso  ? O
   O245       1.0     0.608549     0.188488     0.593363    Uiso  ? O
   O246       1.0     0.639339     0.204256     0.624010    Uiso  ? O
   O247       1.0     0.571327     0.180979     0.626671    Uiso  ? O
   O248       1.0     0.599345     0.197825     0.659829    Uiso  ? O
   O249       1.0     0.591834     0.241067     0.509411    Uiso  ? O
   O250       1.0     0.614948     0.280382     0.499623    Uiso  ? O
   O251       1.0     0.599846     0.231769     0.458355    Uiso  ? O
   O252       1.0     0.611857     0.273703     0.444713    Uiso  ? O
   O253       1.0     0.550563     0.248435     0.447986    Uiso  ? O
   O254       1.0     0.564808     0.292992     0.446564    Uiso  ? O
   O255       1.0     0.544902     0.260486     0.498678    Uiso  ? O
   O256       1.0     0.566002     0.301549     0.496017    Uiso  ? O
   O257       1.0     0.495089     0.818310     0.645762    Uiso  ? O
   O258       1.0     0.505276     0.795996     0.684425    Uiso  ? O
   O259       1.0     0.514913     0.781195     0.611989    Uiso  ? O
   O260       1.0     0.517262     0.755358     0.650844    Uiso  ? O
   O261       1.0     0.560251     0.794507     0.617723    Uiso  ? O
   O262       1.0     0.568541     0.769844     0.656067    Uiso  ? O
   O263       1.0     0.551446     0.834158     0.648303    Uiso  ? O
   O264       1.0     0.555896     0.808826     0.688660    Uiso  ? O
   O265       1.0     0.585229     0.117336     0.407177    Uiso  ? O
   O266       1.0     0.604209     0.840454     0.513708    Uiso  ? O
   O267       1.0     0.530101     0.805244     0.418221    Uiso  ? O
   O268       1.0     0.573149     0.144150     0.585437    Uiso  ? O
   O269       1.0     0.557740     0.205450     0.483969    Uiso  ? O
   O270       1.0     0.521749     0.834517     0.598936    Uiso  ? O
   Zn49       1.0     0.613104     0.120499     0.381896    Uiso  ? Zn
   Zn50       1.0     0.653788     0.126472     0.344002    Uiso  ? Zn
   Zn51       1.0     0.638298     0.827861     0.517666    Uiso  ? Zn
   Zn52       1.0     0.687171     0.804163     0.525652    Uiso  ? Zn
   Zn53       1.0     0.540022     0.774434     0.397031    Uiso  ? Zn
   Zn54       1.0     0.555028     0.733990     0.366431    Uiso  ? Zn
   Zn55       1.0     0.596297     0.157944     0.610989    Uiso  ? Zn
   Zn56       1.0     0.631298     0.177637     0.650024    Uiso  ? Zn
   Zn57       1.0     0.569980     0.241394     0.478648    Uiso  ? Zn
   Zn58       1.0     0.592292     0.290228     0.470951    Uiso  ? Zn
   Zn59       1.0     0.528150     0.811347     0.628188    Uiso  ? Zn
   Zn60       1.0     0.536698     0.778833     0.673847    Uiso  ? Zn
   C481       1.0     0.326924     0.893765     0.596188    Uiso  ? C
   C482       1.0     0.308926     0.110257     0.574900    Uiso  ? C
   C483       1.0     0.279775     0.109488     0.578416    Uiso  ? C
   H289       1.0     0.270103     0.889435     0.594031    Uiso  ? H
   C484       1.0     0.262372     0.119590     0.559267    Uiso  ? C
   H290       1.0     0.240890     0.116786     0.561634    Uiso  ? H
   C485       1.0     0.273284     0.132178     0.535544    Uiso  ? C
   H291       1.0     0.258365     0.139256     0.519719    Uiso  ? H
   C486       1.0     0.301280     0.137255     0.532850    Uiso  ? C
   C487       1.0     0.318851     0.124426     0.552375    Uiso  ? C
   H292       1.0     0.339765     0.128399     0.551427    Uiso  ? H
   C488       1.0     0.312401     0.154846     0.511057    Uiso  ? C
   C489       1.0     0.370647     0.124688     0.646757    Uiso  ? C
   C490       1.0     0.374310     0.151434     0.657081    Uiso  ? C
   C491       1.0     0.364401     0.160620     0.682249    Uiso  ? C
   H293       1.0     0.350518     0.149367     0.695910    Uiso  ? H
   C492       1.0     0.372315     0.186174     0.690768    Uiso  ? C
   H294       1.0     0.365207     0.192393     0.710968    Uiso  ? H
   C493       1.0     0.388245     0.203692     0.677032    Uiso  ? C
   H295       1.0     0.392616     0.224220     0.685760    Uiso  ? H
   C494       1.0     0.397232     0.195547     0.651126    Uiso  ? C
   C495       1.0     0.390412     0.169535     0.641886    Uiso  ? C
   H296       1.0     0.398403     0.162950     0.622391    Uiso  ? H
   C496       1.0     0.415668     0.213695     0.634301    Uiso  ? C
   C497       1.0     0.396058     0.854836     0.658792    Uiso  ? C
   C498       1.0     0.417146     0.841460     0.677457    Uiso  ? C
   C499       1.0     0.409361     0.835419     0.704662    Uiso  ? C
   H297       1.0     0.389633     0.840984     0.712653    Uiso  ? H
   C500       1.0     0.427083     0.817386     0.720142    Uiso  ? C
   H298       1.0     0.421316     0.807781     0.739103    Uiso  ? H
   C501       1.0     0.453196     0.809388     0.708646    Uiso  ? C
   H299       1.0     0.468108     0.795812     0.721227    Uiso  ? H
   C502       1.0     0.461331     0.819720     0.682480    Uiso  ? C
   C503       1.0     0.441893     0.834632     0.667671    Uiso  ? C
   H300       1.0     0.448584     0.841869     0.647847    Uiso  ? H
   C504       1.0     0.488034     0.810126     0.670206    Uiso  ? C
   C505       1.0     0.358712     0.827454     0.608785    Uiso  ? C
   C506       1.0     0.355674     0.798500     0.600496    Uiso  ? C
   C507       1.0     0.341948     0.779905     0.617421    Uiso  ? C
   H301       1.0     0.333423     0.786406     0.636787    Uiso  ? H
   C508       1.0     0.342970     0.752978     0.611697    Uiso  ? C
   H302       1.0     0.334223     0.738384     0.626357    Uiso  ? H
   C509       1.0     0.355695     0.743063     0.587722    Uiso  ? C
   H303       1.0     0.353699     0.722272     0.583386    Uiso  ? H
   C510       1.0     0.368924     0.762307     0.569830    Uiso  ? C
   C511       1.0     0.367905     0.790118     0.575747    Uiso  ? C
   H304       1.0     0.377197     0.805502     0.563188    Uiso  ? H
   C512       1.0     0.383144     0.752674     0.545367    Uiso  ? C
   C513       1.0     0.344095     0.202390     0.426858    Uiso  ? C
   C514       1.0     0.353943     0.217835     0.403115    Uiso  ? C
   C515       1.0     0.338976     0.238377     0.392016    Uiso  ? C
   H305       1.0     0.318984     0.242602     0.400596    Uiso  ? H
   C516       1.0     0.347914     0.249388     0.368040    Uiso  ? C
   H306       1.0     0.333217     0.262050     0.356506    Uiso  ? H
   C517       1.0     0.374950     0.244837     0.358415    Uiso  ? C
   H307       1.0     0.380983     0.255529     0.339738    Uiso  ? H
   C518       1.0     0.391011     0.224690     0.370722    Uiso  ? C
   C519       1.0     0.379667     0.209915     0.392086    Uiso  ? C
   H308       1.0     0.392620     0.194073     0.399864    Uiso  ? H
   C520       1.0     0.418783     0.216935     0.359184    Uiso  ? C
   C521       1.0     0.345571     0.217733     0.497448    Uiso  ? C
   C522       1.0     0.352984     0.240429     0.516460    Uiso  ? C
   C523       1.0     0.338959     0.265139     0.515168    Uiso  ? C
   H309       1.0     0.324177     0.268570     0.499574    Uiso  ? H
   C524       1.0     0.345052     0.285342     0.534906    Uiso  ? C
   H310       1.0     0.335181     0.304896     0.535804    Uiso  ? H
   C525       1.0     0.365642     0.281533     0.554293    Uiso  ? C
   H311       1.0     0.371422     0.298287     0.568469    Uiso  ? H
   C526       1.0     0.378947     0.257058     0.556587    Uiso  ? C
   C527       1.0     0.371712     0.235504     0.538312    Uiso  ? C
   H312       1.0     0.382572     0.215271     0.537820    Uiso  ? H
   C528       1.0     0.402782     0.252505     0.576640    Uiso  ? C
   C529       1.0     0.317853     0.140544     0.439623    Uiso  ? C
   C530       1.0     0.309206     0.117438     0.421584    Uiso  ? C
   C531       1.0     0.282278     0.115923     0.410714    Uiso  ? C
   H313       1.0     0.266428     0.130271     0.417495    Uiso  ? H
   C532       1.0     0.274294     0.892193     0.389939    Uiso  ? C
   H314       1.0     0.254186     0.891743     0.380351    Uiso  ? H
   C533       1.0     0.295901     0.875078     0.379511    Uiso  ? C
   H315       1.0     0.289968     0.859487     0.363522    Uiso  ? H
   C534       1.0     0.322966     0.878639     0.388027    Uiso  ? C
   C535       1.0     0.327973     0.896666     0.408731    Uiso  ? C
   H316       1.0     0.349163     0.106369     0.414927    Uiso  ? H
   C536       1.0     0.346288     0.864204     0.375477    Uiso  ? C
   C537       1.0     0.473331     0.272595     0.574285    Uiso  ? C
   C538       1.0     0.489436     0.291058     0.557243    Uiso  ? C
   C539       1.0     0.489013     0.319926     0.562787    Uiso  ? C
   H317       1.0     0.475893     0.326901     0.579508    Uiso  ? H
   C540       1.0     0.505593     0.338483     0.548321    Uiso  ? C
   H318       1.0     0.506689     0.360284     0.553163    Uiso  ? H
   C541       1.0     0.524534     0.328144     0.529133    Uiso  ? C
   H319       1.0     0.536473     0.342621     0.517450    Uiso  ? H
   C542       1.0     0.526511     0.298444     0.523207    Uiso  ? C
   C543       1.0     0.509062     0.280466     0.537732    Uiso  ? C
   H320       1.0     0.509843     0.258604     0.534277    Uiso  ? H
   C544       1.0     0.546627     0.286577     0.504805    Uiso  ? C
   C545       1.0     0.482224     0.232650     0.636286    Uiso  ? C
   C546       1.0     0.505669     0.227474     0.654213    Uiso  ? C
   C547       1.0     0.505057     0.236349     0.680888    Uiso  ? C
   H321       1.0     0.485172     0.244107     0.689893    Uiso  ? H
   C548       1.0     0.528152     0.233346     0.698702    Uiso  ? C
   H322       1.0     0.526754     0.238185     0.720499    Uiso  ? H
   C549       1.0     0.551526     0.220711     0.687806    Uiso  ? C
   H323       1.0     0.568408     0.217150     0.702386    Uiso  ? H
   C550       1.0     0.550972     0.210704     0.660616    Uiso  ? C
   C551       1.0     0.528813     0.215175     0.644126    Uiso  ? C
   H324       1.0     0.529972     0.206622     0.623382    Uiso  ? H
   C552       1.0     0.574647     0.196271     0.648391    Uiso  ? C
   C553       1.0     0.393331     0.870478     0.322808    Uiso  ? C
   C554       1.0     0.400270     0.894771     0.306147    Uiso  ? C
   C555       1.0     0.392556     0.896635     0.278045    Uiso  ? C
   H325       1.0     0.380726     0.879512     0.269518    Uiso  ? H
   C556       1.0     0.397882     0.127564     0.264244    Uiso  ? C
   H326       1.0     0.387699     0.129971     0.244078    Uiso  ? H
   C557       1.0     0.411610     0.148736     0.276187    Uiso  ? C
   H327       1.0     0.413382     0.169598     0.267592    Uiso  ? H
   C558       1.0     0.421817     0.144960     0.302710    Uiso  ? C
   C559       1.0     0.416142     0.121005     0.318286    Uiso  ? C
   H328       1.0     0.425634     0.118620     0.337881    Uiso  ? H
   C560       1.0     0.439104     0.166648     0.314040    Uiso  ? C
   C561       1.0     0.367392     0.794011     0.384014    Uiso  ? C
   C562       1.0     0.359154     0.772324     0.404384    Uiso  ? C
   C563       1.0     0.343085     0.749855     0.395968    Uiso  ? C
   H329       1.0     0.332790     0.750891     0.377356    Uiso  ? H
   C564       1.0     0.338356     0.728162     0.413976    Uiso  ? C
   H330       1.0     0.326258     0.711049     0.404949    Uiso  ? H
   C565       1.0     0.352096     0.726369     0.439780    Uiso  ? C
   H331       1.0     0.351929     0.707808     0.453302    Uiso  ? H
   C566       1.0     0.368709     0.748125     0.447279    Uiso  ? C
   C567       1.0     0.372370     0.771594     0.430286    Uiso  ? C
   H332       1.0     0.386560     0.786324     0.436614    Uiso  ? H
   C568       1.0     0.384414     0.745326     0.473494    Uiso  ? C
   C569       1.0     0.446538     0.724339     0.551447    Uiso  ? C
   C570       1.0     0.464608     0.719340     0.575730    Uiso  ? C
   C571       1.0     0.474165     0.692349     0.580972    Uiso  ? C
   H333       1.0     0.466728     0.676483     0.568579    Uiso  ? H
   C572       1.0     0.493396     0.688254     0.601017    Uiso  ? C
   H334       1.0     0.501502     0.667113     0.603268    Uiso  ? H
   C573       1.0     0.502381     0.709194     0.617519    Uiso  ? C
   H335       1.0     0.517381     0.705629     0.633739    Uiso  ? H
   C574       1.0     0.494868     0.736033     0.610736    Uiso  ? C
   C575       1.0     0.475191     0.740428     0.591756    Uiso  ? C
   H336       1.0     0.469555     0.760935     0.586725    Uiso  ? H
   C576       1.0     0.509095     0.759160     0.625292    Uiso  ? C
   O271       1.0     0.352732     0.891680     0.588837    Uiso  ? O
   O272       1.0     0.318532     0.885293     0.620647    Uiso  ? O
   O273       1.0     0.383502     0.117151     0.624390    Uiso  ? O
   O274       1.0     0.352959     0.107702     0.658150    Uiso  ? O
   O275       1.0     0.403575     0.864694     0.634663    Uiso  ? O
   O276       1.0     0.371136     0.856668     0.667972    Uiso  ? O
   O277       1.0     0.374848     0.843670     0.596446    Uiso  ? O
   O278       1.0     0.343079     0.836725     0.629707    Uiso  ? O
   O279       1.0     0.362378     0.191379     0.443871    Uiso  ? O
   O280       1.0     0.318706     0.205062     0.433997    Uiso  ? O
   O281       1.0     0.358777     0.195447     0.496748    Uiso  ? O
   O282       1.0     0.322670     0.218869     0.485057    Uiso  ? O
   O283       1.0     0.337815     0.151295     0.503957    Uiso  ? O
   O284       1.0     0.296324     0.169510     0.495781    Uiso  ? O
   O285       1.0     0.342461     0.141335     0.451347    Uiso  ? O
   O286       1.0     0.300951     0.160339     0.445231    Uiso  ? O
   O287       1.0     0.473754     0.246462     0.570650    Uiso  ? O
   O288       1.0     0.459654     0.282287     0.594704    Uiso  ? O
   O289       1.0     0.479675     0.218522     0.612913    Uiso  ? O
   O290       1.0     0.464469     0.251418     0.640857    Uiso  ? O
   O291       1.0     0.431072     0.203218     0.614961    Uiso  ? O
   O292       1.0     0.414018     0.240366     0.637862    Uiso  ? O
   O293       1.0     0.420985     0.233352     0.569979    Uiso  ? O
   O294       1.0     0.407157     0.269116     0.596769    Uiso  ? O
   O295       1.0     0.403351     0.869576     0.348408    Uiso  ? O
   O296       1.0     0.375923     0.851655     0.314171    Uiso  ? O
   O297       1.0     0.370385     0.864095     0.386627    Uiso  ? O
   O298       1.0     0.342537     0.846855     0.356649    Uiso  ? O
   O299       1.0     0.381507     0.815947     0.392304    Uiso  ? O
   O300       1.0     0.357874     0.793209     0.358805    Uiso  ? O
   O301       1.0     0.422968     0.820581     0.358593    Uiso  ? O
   O302       1.0     0.395173     0.805342     0.324646    Uiso  ? O
   O303       1.0     0.400928     0.764269     0.482144    Uiso  ? O
   O304       1.0     0.386158     0.719907     0.484219    Uiso  ? O
   O305       1.0     0.402995     0.767277     0.534299    Uiso  ? O
   O306       1.0     0.379953     0.726663     0.538834    Uiso  ? O
   O307       1.0     0.450616     0.745498     0.536229    Uiso  ? O
   O308       1.0     0.426785     0.706441     0.545692    Uiso  ? O
   O309       1.0     0.447721     0.737580     0.484842    Uiso  ? O
   O310       1.0     0.430702     0.695959     0.495362    Uiso  ? O
   O311       1.0     0.500666     0.178301     0.342140    Uiso  ? O
   O312       1.0     0.492930     0.208975     0.307465    Uiso  ? O
   O313       1.0     0.485658     0.215304     0.375827    Uiso  ? O
   O314       1.0     0.473717     0.244358     0.341592    Uiso  ? O
   O315       1.0     0.435833     0.200558     0.373582    Uiso  ? O
   O316       1.0     0.425064     0.225252     0.335436    Uiso  ? O
   O317       1.0     0.449788     0.162423     0.338266    Uiso  ? O
   O318       1.0     0.441212     0.190623     0.302191    Uiso  ? O
   O319       1.0     0.409206     0.885156     0.586056    Uiso  ? O
   O320       1.0     0.389735     0.153107     0.477556    Uiso  ? O
   O321       1.0     0.459088     0.191526     0.567812    Uiso  ? O
   O322       1.0     0.421799     0.852796     0.400754    Uiso  ? O
   O323       1.0     0.445387     0.788820     0.506639    Uiso  ? O
   O324       1.0     0.472487     0.161286     0.388778    Uiso  ? O
   Zn61       1.0     0.380621     0.878173     0.609403    Uiso  ? Zn
   Zn62       1.0     0.341746     0.869693     0.646418    Uiso  ? Zn
   Zn63       1.0     0.354957     0.167307     0.473725    Uiso  ? Zn
   Zn64       1.0     0.305649     0.190285     0.465658    Uiso  ? Zn
   Zn65       1.0     0.451904     0.222134     0.588691    Uiso  ? Zn
   Zn66       1.0     0.437181     0.264681     0.618923    Uiso  ? Zn
   Zn67       1.0     0.397598     0.842971     0.374093    Uiso  ? Zn
   Zn68       1.0     0.364786     0.823527     0.334944    Uiso  ? Zn
   Zn69       1.0     0.427595     0.756697     0.508980    Uiso  ? Zn
   Zn70       1.0     0.402743     0.707733     0.515835    Uiso  ? Zn
   Zn71       1.0     0.468453     0.184122     0.360527    Uiso  ? Zn
   Zn72       1.0     0.459889     0.219628     0.317577    Uiso  ? Zn
   H337       1.0     0.402281     0.168331     0.480856    Uiso  ? H
   H338       1.0     0.388034     0.144377     0.495982    Uiso  ? H
   H339       1.0     0.588825     0.828033     0.520737    Uiso  ? H
   H340       1.0     0.600288     0.845132     0.493892    Uiso  ? H
   H341       1.0     0.519347     0.853704     0.603165    Uiso  ? H
   H342       1.0     0.504759     0.830214     0.589693    Uiso  ? H
   H343       1.0     0.567463     0.160239     0.575618    Uiso  ? H
   H344       1.0     0.556530     0.139283     0.595838    Uiso  ? H
   H345       1.0     0.488220     0.150627     0.383467    Uiso  ? H
   H346       1.0     0.455553     0.150291     0.389845    Uiso  ? H
   H347       1.0     0.569344     0.121080     0.394130    Uiso  ? H
   H348       1.0     0.585548     0.132867     0.420056    Uiso  ? H
   H349       1.0     0.569383     0.193618     0.472004    Uiso  ? H
   H350       1.0     0.564272     0.202631     0.503644    Uiso  ? H
   H351       1.0     0.436371     0.864377     0.393010    Uiso  ? H
   H352       1.0     0.413857     0.863950     0.415882    Uiso  ? H
   H353       1.0     0.533637     0.800839     0.437368    Uiso  ? H
   H354       1.0     0.509498     0.806800     0.417000    Uiso  ? H
   H355       1.0     0.432552     0.803507     0.510760    Uiso  ? H
   H356       1.0     0.450594     0.790977     0.487222    Uiso  ? H
   H357       1.0     0.451176     0.193734     0.549178    Uiso  ? H
   H358       1.0     0.449066     0.176692     0.575843    Uiso  ? H
   H359       1.0     0.402823     0.895971     0.570813    Uiso  ? H
   H360       1.0     0.414141     0.867640     0.577813    Uiso  ? H
   C577       1.0     0.519266     0.337277     0.204847    Uiso  ? C
   C578       1.0     0.536561     0.346544     0.227817    Uiso  ? C
   C579       1.0     0.545323     0.328130     0.247370    Uiso  ? C
   H361       1.0     0.540286     0.306413     0.246039    Uiso  ? H
   C580       1.0     0.561418     0.336641     0.269025    Uiso  ? C
   H362       1.0     0.567913     0.324031     0.285272    Uiso  ? H
   C581       1.0     0.569359     0.363606     0.271967    Uiso  ? C
   H363       1.0     0.582876     0.370454     0.288942    Uiso  ? H
   C582       1.0     0.560564     0.383626     0.252650    Uiso  ? C
   C583       1.0     0.543710     0.373858     0.231536    Uiso  ? C
   H364       1.0     0.536009     0.389823     0.217890    Uiso  ? H
   C584       1.0     0.563348     0.413106     0.258180    Uiso  ? C
   C585       1.0     0.449833     0.336075     0.185943    Uiso  ? C
   C586       1.0     0.423647     0.342758     0.200593    Uiso  ? C
   C587       1.0     0.403886     0.321453     0.206621    Uiso  ? C
   H365       1.0     0.406061     0.299902     0.201196    Uiso  ? H
   C588       1.0     0.381220     0.329148     0.221609    Uiso  ? C
   H366       1.0     0.368758     0.313615     0.229704    Uiso  ? H
   C589       1.0     0.377111     0.356408     0.228711    Uiso  ? C
   H367       1.0     0.359403     0.362512     0.241018    Uiso  ? H
   C590       1.0     0.394586     0.376802     0.219955    Uiso  ? C
   C591       1.0     0.419315     0.370467     0.206176    Uiso  ? C
   H368       1.0     0.433593     0.386186     0.201140    Uiso  ? H
   C592       1.0     0.388253     0.406032     0.224757    Uiso  ? C
   C593       1.0     0.465765     0.307351     0.123550    Uiso  ? C
   C594       1.0     0.444869     0.302220     0.102849    Uiso  ? C
   C595       1.0     0.426554     0.280141     0.105399    Uiso  ? C
   H369       1.0     0.427447     0.265804     0.122030    Uiso  ? H
   C596       1.0     0.406969     0.274840     0.885647    Uiso  ? C
   H370       1.0     0.391557     0.258321     0.887444    Uiso  ? H
   C597       1.0     0.404340     0.292724     0.863527    Uiso  ? C
   H371       1.0     0.388132     0.291197     0.847742    Uiso  ? H
   C598       1.0     0.422700     0.314578     0.860763    Uiso  ? C
   C599       1.0     0.443782     0.318383     0.881008    Uiso  ? C
   H372       1.0     0.458599     0.334578     0.878720    Uiso  ? H
   C600       1.0     0.421175     0.331597     0.837291    Uiso  ? C
   C601       1.0     0.535377     0.312041     0.139262    Uiso  ? C
   C602       1.0     0.560823     0.306215     0.124490    Uiso  ? C
   C603       1.0     0.575103     0.281231     0.127571    Uiso  ? C
   H373       1.0     0.568798     0.268053     0.144181    Uiso  ? H
   C604       1.0     0.595962     0.274505     0.108844    Uiso  ? C
   H374       1.0     0.605858     0.255091     0.110258    Uiso  ? H
   C605       1.0     0.605358     0.292436     0.890479    Uiso  ? C
   H375       1.0     0.621670     0.285883     0.877314    Uiso  ? H
   C606       1.0     0.591041     0.316414     0.885493    Uiso  ? C
   C607       1.0     0.568561     0.324383     0.102304    Uiso  ? C
   H376       1.0     0.557511     0.341966     0.899129    Uiso  ? H
   C608       1.0     0.595880     0.333564     0.861562    Uiso  ? C
   C609       1.0     0.569387     0.513721     0.280159    Uiso  ? C
   C610       1.0     0.571078     0.543374     0.284595    Uiso  ? C
   C611       1.0     0.569688     0.553950     0.310309    Uiso  ? C
   H377       1.0     0.564346     0.539169     0.326384    Uiso  ? H
   C612       1.0     0.573357     0.581520     0.315792    Uiso  ? C
   H378       1.0     0.571158     0.589139     0.335107    Uiso  ? H
   C613       1.0     0.577503     0.599151     0.294124    Uiso  ? C
   H379       1.0     0.577836     0.621694     0.297524    Uiso  ? H
   C614       1.0     0.578382     0.589573     0.266476    Uiso  ? C
   C615       1.0     0.575653     0.561667     0.262226    Uiso  ? C
   H380       1.0     0.578965     0.554023     0.242220    Uiso  ? H
   C616       1.0     0.580981     0.608219     0.242925    Uiso  ? C
   C617       1.0     0.518219     0.461995     0.285648    Uiso  ? C
   C618       1.0     0.490172     0.456888     0.294606    Uiso  ? C
   C619       1.0     0.484405     0.455680     0.322853    Uiso  ? C
   H381       1.0     0.501899     0.455052     0.337505    Uiso  ? H
   C620       1.0     0.457074     0.457591     0.330442    Uiso  ? C
   H382       1.0     0.454294     0.458362     0.351996    Uiso  ? H
   C621       1.0     0.435236     0.457215     0.312219    Uiso  ? C
   H383       1.0     0.414314     0.458605     0.320840    Uiso  ? H
   C622       1.0     0.440691     0.458125     0.284248    Uiso  ? C
   C623       1.0     0.467721     0.457483     0.275103    Uiso  ? C
   H384       1.0     0.471366     0.461085     0.253683    Uiso  ? H
   C624       1.0     0.418861     0.458740     0.264051    Uiso  ? C
   C625       1.0     0.614001     0.465511     0.255496    Uiso  ? C
   C626       1.0     0.643565     0.469095     0.244884    Uiso  ? C
   C627       1.0     0.665691     0.466104     0.263618    Uiso  ? C
   H385       1.0     0.662434     0.461531     0.285243    Uiso  ? H
   C628       1.0     0.692151     0.470861     0.254588    Uiso  ? C
   H386       1.0     0.707115     0.470450     0.269250    Uiso  ? H
   C629       1.0     0.698173     0.474829     0.227224    Uiso  ? C
   H387       1.0     0.719014     0.478949     0.221138    Uiso  ? H
   C630       1.0     0.675984     0.479200     0.207793    Uiso  ? C
   C631       1.0     0.649348     0.475471     0.216367    Uiso  ? C
   H388       1.0     0.632319     0.477775     0.202420    Uiso  ? H
   C632       1.0     0.681483     0.484595     0.178550    Uiso  ? C
   C633       1.0     0.366667     0.502393     0.237771    Uiso  ? C
   C634       1.0     0.356465     0.530838     0.239803    Uiso  ? C
   C635       1.0     0.336966     0.538619     0.260396    Uiso  ? C
   H389       1.0     0.332651     0.523209     0.275320    Uiso  ? H
   C636       1.0     0.326536     0.565359     0.260541    Uiso  ? C
   H390       1.0     0.310500     0.569491     0.274230    Uiso  ? H
   C637       1.0     0.337966     0.585286     0.242931    Uiso  ? C
   H391       1.0     0.329134     0.605832     0.242909    Uiso  ? H
   C638       1.0     0.359716     0.578241     0.224542    Uiso  ? C
   C639       1.0     0.368770     0.550356     0.223136    Uiso  ? C
   H392       1.0     0.383142     0.543489     0.208966    Uiso  ? H
   C640       1.0     0.373423     0.599306     0.206940    Uiso  ? C
   C641       1.0     0.343486     0.453607     0.199603    Uiso  ? C
   C642       1.0     0.319471     0.453940     0.180319    Uiso  ? C
   C643       1.0     0.294315     0.442584     0.188173    Uiso  ? C
   H393       1.0     0.292921     0.431342     0.206462    Uiso  ? H
   C644       1.0     0.271297     0.445147     0.170906    Uiso  ? C
   H394       1.0     0.250318     0.439897     0.176299    Uiso  ? H
   C645       1.0     0.274049     0.458818     0.144804    Uiso  ? C
   H395       1.0     0.256036     0.457264     0.130958    Uiso  ? H
   C646       1.0     0.300070     0.464945     0.135149    Uiso  ? C
   C647       1.0     0.322079     0.464849     0.153536    Uiso  ? C
   H396       1.0     0.342167     0.471245     0.148623    Uiso  ? H
   C648       1.0     0.303627     0.479615     0.109401    Uiso  ? C
   C649       1.0     0.681013     0.547079     0.147351    Uiso  ? C
   C650       1.0     0.678082     0.574355     0.160462    Uiso  ? C
   C651       1.0     0.702152     0.590943     0.164405    Uiso  ? C
   H397       1.0     0.721510     0.584697     0.154916    Uiso  ? H
   C652       1.0     0.700089     0.615585     0.178364    Uiso  ? C
   H398       1.0     0.718541     0.628107     0.180503    Uiso  ? H
   C653       1.0     0.675612     0.623840     0.187505    Uiso  ? C
   H399       1.0     0.671883     0.642787     0.200053    Uiso  ? H
   C654       1.0     0.651325     0.610325     0.181502    Uiso  ? C
   C655       1.0     0.652893     0.585545     0.167601    Uiso  ? C
   H400       1.0     0.635181     0.576350     0.159288    Uiso  ? H
   C656       1.0     0.623673     0.620766     0.189379    Uiso  ? C
   C657       1.0     0.690814     0.455214     0.107108    Uiso  ? C
   C658       1.0     0.694398     0.427308     0.894411    Uiso  ? C
   C659       1.0     0.719923     0.414533     0.891565    Uiso  ? C
   H401       1.0     0.738873     0.423303     0.899319    Uiso  ? H
   C660       1.0     0.723076     0.390158     0.877158    Uiso  ? C
   H402       1.0     0.742501     0.381159     0.873004    Uiso  ? H
   C661       1.0     0.700590     0.377679     0.864553    Uiso  ? C
   H403       1.0     0.700596     0.358178     0.854511    Uiso  ? H
   C662       1.0     0.674453     0.389624     0.867356    Uiso  ? C
   C663       1.0     0.672462     0.413770     0.881758    Uiso  ? C
   H404       1.0     0.653085     0.423023     0.886006    Uiso  ? H
   C664       1.0     0.650908     0.378066     0.851874    Uiso  ? C
   C665       1.0     0.570918     0.345399     0.799285    Uiso  ? C
   C666       1.0     0.545511     0.332620     0.785855    Uiso  ? C
   C667       1.0     0.547987     0.310637     0.767814    Uiso  ? C
   H405       1.0     0.568631     0.304510     0.760518    Uiso  ? H
   C668       1.0     0.524164     0.297322     0.758326    Uiso  ? C
   H406       1.0     0.525282     0.280206     0.745203    Uiso  ? H
   C669       1.0     0.498875     0.307337     0.766150    Uiso  ? C
   H407       1.0     0.481447     0.296236     0.758747    Uiso  ? H
   C670       1.0     0.496132     0.332247     0.780550    Uiso  ? C
   C671       1.0     0.519781     0.344951     0.790934    Uiso  ? C
   H408       1.0     0.516743     0.364544     0.801626    Uiso  ? H
   C672       1.0     0.468864     0.343332     0.786354    Uiso  ? C
   O325       1.0     0.518153     0.353131     0.183379    Uiso  ? O
   O326       1.0     0.507038     0.313478     0.204371    Uiso  ? O
   O327       1.0     0.464187     0.356074     0.175514    Uiso  ? O
   O328       1.0     0.457548     0.310747     0.185955    Uiso  ? O
   O329       1.0     0.474617     0.332184     0.127130    Uiso  ? O
   O330       1.0     0.473568     0.287815     0.140039    Uiso  ? O
   O331       1.0     0.524605     0.336293     0.136169    Uiso  ? O
   O332       1.0     0.524047     0.293307     0.155341    Uiso  ? O
   O333       1.0     0.559715     0.503544     0.255872    Uiso  ? O
   O334       1.0     0.575199     0.496698     0.299470    Uiso  ? O
   O335       1.0     0.523211     0.463465     0.259444    Uiso  ? O
   O336       1.0     0.538025     0.458174     0.302813    Uiso  ? O
   O337       1.0     0.556698     0.430168     0.238663    Uiso  ? O
   O338       1.0     0.570554     0.421038     0.282201    Uiso  ? O
   O339       1.0     0.593834     0.469771     0.238618    Uiso  ? O
   O340       1.0     0.609303     0.460378     0.281457    Uiso  ? O
   O341       1.0     0.385287     0.496781     0.219433    Uiso  ? O
   O342       1.0     0.355842     0.483630     0.252638    Uiso  ? O
   O343       1.0     0.367844     0.460774     0.190097    Uiso  ? O
   O344       1.0     0.340364     0.446122     0.225495    Uiso  ? O
   O345       1.0     0.399380     0.425646     0.210477    Uiso  ? O
   O346       1.0     0.370614     0.411779     0.244824    Uiso  ? O
   O347       1.0     0.424084     0.464902     0.238428    Uiso  ? O
   O348       1.0     0.394889     0.451272     0.272623    Uiso  ? O
   O349       1.0     0.658474     0.536109     0.136668    Uiso  ? O
   O350       1.0     0.704229     0.534631     0.148926    Uiso  ? O
   O351       1.0     0.661506     0.489232     0.162099    Uiso  ? O
   O352       1.0     0.706425     0.487668     0.168686    Uiso  ? O
   O353       1.0     0.666275     0.466623     0.108618    Uiso  ? O
   O354       1.0     0.711932     0.465973     0.119637    Uiso  ? O
   O355       1.0     0.667524     0.515630     0.896290    Uiso  ? O
   O356       1.0     0.713230     0.514173     0.900000    Uiso  ? O
   O357       1.0     0.626159     0.389688     0.853025    Uiso  ? O
   O358       1.0     0.653136     0.358746     0.833642    Uiso  ? O
   O359       1.0     0.585971     0.358965     0.861705    Uiso  ? O
   O360       1.0     0.612687     0.326151     0.842312    Uiso  ? O
   O361       1.0     0.568179     0.368095     0.813428    Uiso  ? O
   O362       1.0     0.594199     0.333644     0.796684    Uiso  ? O
   O363       1.0     0.603295     0.405981     0.807123    Uiso  ? O
   O364       1.0     0.628142     0.372495     0.786035    Uiso  ? O
   O365       1.0     0.567674     0.642526     0.159597    Uiso  ? O
   O366       1.0     0.585296     0.676450     0.186168    Uiso  ? O
   O367       1.0     0.534322     0.630957     0.198769    Uiso  ? O
   O368       1.0     0.552560     0.663427     0.225753    Uiso  ? O
   O369       1.0     0.573010     0.599059     0.218421    Uiso  ? O
   O370       1.0     0.586128     0.634314     0.245732    Uiso  ? O
   O371       1.0     0.601042     0.608914     0.179407    Uiso  ? O
   O372       1.0     0.621144     0.641138     0.206024    Uiso  ? O
   O373       1.0     0.497743     0.383477     0.140605    Uiso  ? O
   O374       1.0     0.545951     0.478979     0.211248    Uiso  ? O
   O375       1.0     0.420991     0.472674     0.183759    Uiso  ? O
   O376       1.0     0.620564     0.497376     0.120606    Uiso  ? O
   O377       1.0     0.572826     0.412368     0.852250    Uiso  ? O
   O378       1.0     0.549731     0.589734     0.166206    Uiso  ? O
   Zn73       1.0     0.496363     0.349952     0.153957    Uiso  ? Zn
   Zn74       1.0     0.490618     0.297542     0.173157    Uiso  ? Zn
   Zn75       1.0     0.557184     0.468651     0.245368    Uiso  ? Zn
   Zn76       1.0     0.574016     0.458438     0.296113    Uiso  ? Zn
   Zn77       1.0     0.397902     0.462982     0.212176    Uiso  ? Zn
   Zn78       1.0     0.363915     0.447878     0.253462    Uiso  ? Zn
   Zn79       1.0     0.658172     0.500087     0.125842    Uiso  ? Zn
   Zn80       1.0     0.713944     0.501009     0.134292    Uiso  ? Zn
   Zn81       1.0     0.592777     0.384918     0.835161    Uiso  ? Zn
   Zn82       1.0     0.624896     0.344311     0.812162    Uiso  ? Zn
   Zn83       1.0     0.566012     0.617431     0.187098    Uiso  ? Zn
   Zn84       1.0     0.588792     0.656857     0.217782    Uiso  ? Zn
   C673       1.0     0.478352     0.662152     0.794072    Uiso  ? C
   C674       1.0     0.461609     0.654082     0.771731    Uiso  ? C
   C675       1.0     0.452716     0.674152     0.752138    Uiso  ? C
   H409       1.0     0.456220     0.695256     0.756513    Uiso  ? H
   C676       1.0     0.437262     0.666242     0.729313    Uiso  ? C
   H410       1.0     0.430320     0.681561     0.714810    Uiso  ? H
   C677       1.0     0.432241     0.637977     0.725757    Uiso  ? C
   H411       1.0     0.420161     0.631055     0.709264    Uiso  ? H
   C678       1.0     0.442776     0.616859     0.744018    Uiso  ? C
   C679       1.0     0.457250     0.625760     0.766620    Uiso  ? C
   H412       1.0     0.464479     0.611079     0.782650    Uiso  ? H
   C680       1.0     0.438624     0.587042     0.738612    Uiso  ? C
   C681       1.0     0.548234     0.665721     0.808229    Uiso  ? C
   C682       1.0     0.573325     0.657302     0.791674    Uiso  ? C
   C683       1.0     0.591720     0.676176     0.781292    Uiso  ? C
   H413       1.0     0.585767     0.697114     0.781452    Uiso  ? H
   C684       1.0     0.615645     0.668626     0.767074    Uiso  ? C
   H414       1.0     0.630315     0.684210     0.760154    Uiso  ? H
   C685       1.0     0.619905     0.640894     0.761922    Uiso  ? C
   H415       1.0     0.637742     0.634714     0.749922    Uiso  ? H
   C686       1.0     0.601964     0.621659     0.773078    Uiso  ? C
   C687       1.0     0.579901     0.628831     0.789126    Uiso  ? C
   H416       1.0     0.565613     0.613009     0.798445    Uiso  ? H
   C688       1.0     0.608676     0.592010     0.768472    Uiso  ? C
   C689       1.0     0.538223     0.689781     0.873233    Uiso  ? C
   C690       1.0     0.557951     0.696699     0.896216    Uiso  ? C
   C691       1.0     0.570101     0.723026     0.897984    Uiso  ? C
   H417       1.0     0.567308     0.737335     0.881415    Uiso  ? H
   C692       1.0     0.585521     0.731392     0.120197    Uiso  ? C
   H418       1.0     0.597503     0.750787     0.120721    Uiso  ? H
   C693       1.0     0.585004     0.714818     0.143526    Uiso  ? C
   H419       1.0     0.596604     0.721626     0.161327    Uiso  ? H
   C694       1.0     0.573447     0.688023     0.140497    Uiso  ? C
   C695       1.0     0.558544     0.681072     0.117472    Uiso  ? C
   H420       1.0     0.546304     0.662372     0.118302    Uiso  ? H
   C696       1.0     0.576019     0.667792     0.162365    Uiso  ? C
   C697       1.0     0.466429     0.687549     0.864312    Uiso  ? C
   C698       1.0     0.443205     0.696548     0.881194    Uiso  ? C
   C699       1.0     0.430005     0.722920     0.877340    Uiso  ? C
   H421       1.0     0.436030     0.735573     0.859215    Uiso  ? H
   C700       1.0     0.409719     0.729844     0.895519    Uiso  ? C
   H422       1.0     0.398072     0.748352     0.894084    Uiso  ? H
   C701       1.0     0.403522     0.713342     0.115968    Uiso  ? C
   H423       1.0     0.389402     0.720686     0.131816    Uiso  ? H
   C702       1.0     0.413096     0.686267     0.117371    Uiso  ? C
   C703       1.0     0.434795     0.680391     0.100000    Uiso  ? C
   H424       1.0     0.444818     0.660945     0.101491    Uiso  ? H
   C704       1.0     0.404042     0.666962     0.138354    Uiso  ? C
   C705       1.0     0.427466     0.487625     0.720003    Uiso  ? C
   C706       1.0     0.424508     0.458227     0.715031    Uiso  ? C
   C707       1.0     0.425657     0.448952     0.687311    Uiso  ? C
   H425       1.0     0.428279     0.463980     0.671844    Uiso  ? H
   C708       1.0     0.424951     0.420960     0.681716    Uiso  ? C
   H426       1.0     0.425599     0.414038     0.660763    Uiso  ? H
   C709       1.0     0.421877     0.401780     0.702765    Uiso  ? C
   H427       1.0     0.419849     0.379609     0.698402    Uiso  ? H
   C710       1.0     0.423254     0.410559     0.729801    Uiso  ? C
   C711       1.0     0.423943     0.438994     0.735462    Uiso  ? C
   H428       1.0     0.422886     0.444507     0.757275    Uiso  ? H
   C712       1.0     0.423001     0.391949     0.752960    Uiso  ? C
   C713       1.0     0.480098     0.537941     0.713391    Uiso  ? C
   C714       1.0     0.508136     0.536158     0.702078    Uiso  ? C
   C715       1.0     0.513789     0.536035     0.674119    Uiso  ? C
   H429       1.0     0.497088     0.537196     0.659224    Uiso  ? H
   C716       1.0     0.539844     0.536792     0.663178    Uiso  ? C
   H430       1.0     0.543033     0.536536     0.640970    Uiso  ? H
   C717       1.0     0.562289     0.540666     0.679753    Uiso  ? C
   H431       1.0     0.582185     0.543704     0.671852    Uiso  ? H
   C718       1.0     0.557843     0.540568     0.707503    Uiso  ? C
   C719       1.0     0.531025     0.537021     0.719379    Uiso  ? C
   H432       1.0     0.528535     0.535252     0.741233    Uiso  ? H
   C720       1.0     0.580913     0.543280     0.726426    Uiso  ? C
   C721       1.0     0.385381     0.539378     0.745624    Uiso  ? C
   C722       1.0     0.356713     0.539049     0.754916    Uiso  ? C
   C723       1.0     0.335353     0.545658     0.737081    Uiso  ? C
   H433       1.0     0.339266     0.553983     0.716676    Uiso  ? H
   C724       1.0     0.307468     0.544119     0.745402    Uiso  ? C
   H434       1.0     0.291900     0.545983     0.729695    Uiso  ? H
   C725       1.0     0.300979     0.537264     0.773434    Uiso  ? C
   H435       1.0     0.279683     0.536007     0.779959    Uiso  ? H
   C726       1.0     0.322623     0.531617     0.791443    Uiso  ? C
   C727       1.0     0.349713     0.533042     0.782642    Uiso  ? C
   H436       1.0     0.365115     0.527823     0.798009    Uiso  ? H
   C728       1.0     0.316568     0.521706     0.818990    Uiso  ? C
   C729       1.0     0.625615     0.494343     0.750987    Uiso  ? C
   C730       1.0     0.631059     0.464352     0.747244    Uiso  ? C
   C731       1.0     0.643984     0.453840     0.722995    Uiso  ? C
   H437       1.0     0.651538     0.467688     0.707011    Uiso  ? H
   C732       1.0     0.646574     0.426045     0.719731    Uiso  ? C
   H438       1.0     0.653827     0.418076     0.699972    Uiso  ? H
   C733       1.0     0.639723     0.407351     0.740186    Uiso  ? C
   H439       1.0     0.642117     0.386631     0.734943    Uiso  ? H
   C734       1.0     0.628140     0.417156     0.765103    Uiso  ? C
   C735       1.0     0.623526     0.444654     0.769394    Uiso  ? C
   H440       1.0     0.613472     0.452233     0.788742    Uiso  ? H
   C736       1.0     0.619590     0.397980     0.787047    Uiso  ? C
   C737       1.0     0.657149     0.549714     0.793385    Uiso  ? C
   C738       1.0     0.679384     0.549373     0.813221    Uiso  ? C
   C739       1.0     0.705774     0.557462     0.806976    Uiso  ? C
   H441       1.0     0.711206     0.563591     0.788257    Uiso  ? H
   C740       1.0     0.727483     0.556184     0.826141    Uiso  ? C
   H442       1.0     0.747966     0.561945     0.820354    Uiso  ? H
   C741       1.0     0.722855     0.543438     0.851808    Uiso  ? C
   H443       1.0     0.741101     0.540112     0.864451    Uiso  ? H
   C742       1.0     0.695859     0.535379     0.860595    Uiso  ? C
   C743       1.0     0.674379     0.540061     0.840963    Uiso  ? C
   H444       1.0     0.653590     0.535140     0.847176    Uiso  ? H
   C744       1.0     0.691946     0.522174     0.887756    Uiso  ? C
   C745       1.0     0.313773     0.455367     0.842077    Uiso  ? C
   C746       1.0     0.317988     0.428897     0.827282    Uiso  ? C
   C747       1.0     0.295965     0.416170     0.813652    Uiso  ? C
   H445       1.0     0.275419     0.423655     0.816885    Uiso  ? H
   C748       1.0     0.300386     0.392045     0.800515    Uiso  ? C
   H446       1.0     0.282294     0.383273     0.791467    Uiso  ? H
   C749       1.0     0.326491     0.381059     0.797645    Uiso  ? C
   H447       1.0     0.328793     0.361666     0.786244    Uiso  ? H
   C750       1.0     0.349005     0.393366     0.811514    Uiso  ? C
   C751       1.0     0.344134     0.418579     0.825728    Uiso  ? C
   H448       1.0     0.361678     0.429917     0.833301    Uiso  ? H
   C752       1.0     0.376343     0.381531     0.807840    Uiso  ? C
   C753       1.0     0.308932     0.546944     0.888451    Uiso  ? C
   C754       1.0     0.306376     0.575033     0.101064    Uiso  ? C
   C755       1.0     0.283134     0.590008     0.898389    Uiso  ? C
   H449       1.0     0.266638     0.582221     0.886231    Uiso  ? H
   C756       1.0     0.280442     0.615552     0.110900    Uiso  ? C
   H450       1.0     0.262337     0.628579     0.106990    Uiso  ? H
   C757       1.0     0.302611     0.625308     0.126778    Uiso  ? C
   H451       1.0     0.302942     0.646457     0.134640    Uiso  ? H
   C758       1.0     0.326775     0.609103     0.130776    Uiso  ? C
   C759       1.0     0.328621     0.584568     0.117922    Uiso  ? C
   H452       1.0     0.344927     0.574144     0.120885    Uiso  ? H
   C760       1.0     0.349780     0.620179     0.145824    Uiso  ? C
   C761       1.0     0.429852     0.648503     0.202545    Uiso  ? C
   C762       1.0     0.453971     0.660915     0.214893    Uiso  ? C
   C763       1.0     0.450557     0.682652     0.233672    Uiso  ? C
   H453       1.0     0.429982     0.692662     0.236181    Uiso  ? H
   C764       1.0     0.473378     0.693038     0.246474    Uiso  ? C
   H454       1.0     0.471176     0.707692     0.263497    Uiso  ? H
   C765       1.0     0.499715     0.683110     0.240476    Uiso  ? C
   H455       1.0     0.516630     0.691684     0.250475    Uiso  ? H
   C766       1.0     0.503767     0.663164     0.220613    Uiso  ? C
   C767       1.0     0.479979     0.650076     0.210346    Uiso  ? C
   H456       1.0     0.482584     0.632741     0.197436    Uiso  ? H
   C768       1.0     0.531575     0.651981     0.214926    Uiso  ? C
   O379       1.0     0.482733     0.645265     0.813900    Uiso  ? O
   O380       1.0     0.488672     0.687072     0.796200    Uiso  ? O
   O381       1.0     0.535024     0.646469     0.821245    Uiso  ? O
   O382       1.0     0.538801     0.690315     0.808094    Uiso  ? O
   O383       1.0     0.529312     0.664603     0.871316    Uiso  ? O
   O384       1.0     0.530268     0.706606     0.854899    Uiso  ? O
   O385       1.0     0.475737     0.662100     0.864379    Uiso  ? O
   O386       1.0     0.477436     0.704987     0.847299    Uiso  ? O
   O387       1.0     0.433450     0.496896     0.744157    Uiso  ? O
   O388       1.0     0.424728     0.504871     0.700166    Uiso  ? O
   O389       1.0     0.474815     0.530840     0.739256    Uiso  ? O
   O390       1.0     0.460730     0.541984     0.696519    Uiso  ? O
   O391       1.0     0.444902     0.569344     0.756355    Uiso  ? O
   O392       1.0     0.428633     0.578875     0.714963    Uiso  ? O
   O393       1.0     0.406202     0.538120     0.762828    Uiso  ? O
   O394       1.0     0.390915     0.539018     0.719643    Uiso  ? O
   O395       1.0     0.610861     0.501780     0.772260    Uiso  ? O
   O396       1.0     0.638362     0.511499     0.735495    Uiso  ? O
   O397       1.0     0.631904     0.543182     0.801221    Uiso  ? O
   O398       1.0     0.662301     0.549912     0.767671    Uiso  ? O
   O399       1.0     0.596663     0.573081     0.782748    Uiso  ? O
   O400       1.0     0.625037     0.584801     0.748262    Uiso  ? O
   O401       1.0     0.576348     0.537628     0.752052    Uiso  ? O
   O402       1.0     0.605378     0.550035     0.718032    Uiso  ? O
   O403       1.0     0.334264     0.467962     0.853519    Uiso  ? O
   O404       1.0     0.289960     0.467936     0.843308    Uiso  ? O
   O405       1.0     0.335770     0.517687     0.836780    Uiso  ? O
   O406       1.0     0.291134     0.516223     0.825759    Uiso  ? O
   O407       1.0     0.330970     0.534030     0.890334    Uiso  ? O
   O408       1.0     0.287987     0.536941     0.874963    Uiso  ? O
   O409       1.0     0.328883     0.485384     0.101469    Uiso  ? O
   O410       1.0     0.283287     0.483873     0.893869    Uiso  ? O
   O411       1.0     0.374636     0.608508     0.142543    Uiso  ? O
   O412       1.0     0.347045     0.639981     0.162613    Uiso  ? O
   O413       1.0     0.413791     0.642501     0.137829    Uiso  ? O
   O414       1.0     0.387396     0.673584     0.158407    Uiso  ? O
   O415       1.0     0.433219     0.627829     0.185775    Uiso  ? O
   O416       1.0     0.406135     0.659451     0.205331    Uiso  ? O
   O417       1.0     0.391342     0.592067     0.188983    Uiso  ? O
   O418       1.0     0.364702     0.625112     0.209862    Uiso  ? O
   O419       1.0     0.430876     0.357346     0.838469    Uiso  ? O
   O420       1.0     0.410798     0.321713     0.814264    Uiso  ? O
   O421       1.0     0.465370     0.367226     0.798173    Uiso  ? O
   O422       1.0     0.448073     0.329246     0.778046    Uiso  ? O
   O423       1.0     0.430745     0.401727     0.776316    Uiso  ? O
   O424       1.0     0.417473     0.365094     0.751067    Uiso  ? O
   O425       1.0     0.397720     0.395183     0.816950    Uiso  ? O
   O426       1.0     0.379211     0.358967     0.792986    Uiso  ? O
   O427       1.0     0.504998     0.614596     0.856030    Uiso  ? O
   O428       1.0     0.452718     0.526515     0.790962    Uiso  ? O
   O429       1.0     0.574749     0.529338     0.807930    Uiso  ? O
   O430       1.0     0.373994     0.501888     0.874092    Uiso  ? O
   O431       1.0     0.428956     0.589323     0.145368    Uiso  ? O
   O432       1.0     0.452799     0.408780     0.830020    Uiso  ? O
   Zn85       1.0     0.505425     0.649830     0.844036    Uiso  ? Zn
   Zn86       1.0     0.507960     0.700866     0.824614    Uiso  ? Zn
   Zn87       1.0     0.441192     0.533347     0.755501    Uiso  ? Zn
   Zn88       1.0     0.424473     0.542822     0.703202    Uiso  ? Zn
   Zn89       1.0     0.600756     0.536379     0.780685    Uiso  ? Zn
   Zn90       1.0     0.636193     0.549395     0.739371    Uiso  ? Zn
   Zn91       1.0     0.336179     0.501993     0.870248    Uiso  ? Zn
   Zn92       1.0     0.282975     0.501418     0.859957    Uiso  ? Zn
   Zn93       1.0     0.406474     0.613708     0.162463    Uiso  ? Zn
   Zn94       1.0     0.373959     0.651648     0.187077    Uiso  ? Zn
   Zn95       1.0     0.434143     0.383363     0.810406    Uiso  ? Zn
   Zn96       1.0     0.412117     0.340793     0.781251    Uiso  ? Zn
   H457       1.0     0.470712     0.519545     0.790026    Uiso  ? H
   H458       1.0     0.442807     0.509753     0.796171    Uiso  ? H
   H459       1.0     0.525785     0.479198     0.206401    Uiso  ? H
   H460       1.0     0.554842     0.468322     0.197743    Uiso  ? H
   H461       1.0     0.554257     0.592625     0.147069    Uiso  ? H
   H462       1.0     0.529958     0.593662     0.167607    Uiso  ? H
   H463       1.0     0.614465     0.479374     0.127076    Uiso  ? H
   H464       1.0     0.618517     0.494980     0.101368    Uiso  ? H
   H465       1.0     0.442140     0.426202     0.826231    Uiso  ? H
   H466       1.0     0.450087     0.405192     0.849024    Uiso  ? H
   H467       1.0     0.505532     0.382367     0.121536    Uiso  ? H
   H468       1.0     0.479106     0.388561     0.137702    Uiso  ? H
   H469       1.0     0.558756     0.422502     0.841184    Uiso  ? H
   H470       1.0     0.584372     0.427087     0.857508    Uiso  ? H
   H471       1.0     0.379248     0.508052     0.892661    Uiso  ? H
   H472       1.0     0.381241     0.482295     0.871718    Uiso  ? H
   H473       1.0     0.417033     0.458646     0.167701    Uiso  ? H
   H474       1.0     0.440768     0.469741     0.187938    Uiso  ? H
   H475       1.0     0.418236     0.573831     0.138074    Uiso  ? H
   H476       1.0     0.440002     0.582393     0.160521    Uiso  ? H
   H477       1.0     0.560838     0.518724     0.798027    Uiso  ? H
   H478       1.0     0.567202     0.547306     0.812060    Uiso  ? H
   H479       1.0     0.501040     0.602996     0.839221    Uiso  ? H
   H480       1.0     0.522295     0.606465     0.862594    Uiso  ? H
   C769       1.0     0.606648     0.435870     0.339433    Uiso  ? C
   C770       1.0     0.605437     0.427003     0.365505    Uiso  ? C
   C771       1.0     0.568784     0.447461     0.355949    Uiso  ? C
   N1         1.0     0.583655     0.449908     0.333633    Uiso  ? N
   H481       1.0     0.620887     0.428817     0.324667    Uiso  ? H
   H482       1.0     0.619478     0.412932     0.375034    Uiso  ? H
   H483       1.0     0.548336     0.455631     0.358243    Uiso  ? H
   N2         1.0     0.581659     0.435847     0.376644    Uiso  ? N
   C772       1.0     0.568723     0.419505     0.397849    Uiso  ? C
   H484       1.0     0.584111     0.406413     0.408770    Uiso  ? H
   H485       1.0     0.558709     0.434116     0.413979    Uiso  ? H
   C773       1.0     0.546462     0.400940     0.385384    Uiso  ? C
   C774       1.0     0.553954     0.376279     0.369761    Uiso  ? C
   C775       1.0     0.519431     0.411045     0.382906    Uiso  ? C
   C776       1.0     0.535389     0.364189     0.351211    Uiso  ? C
   H486       1.0     0.575434     0.370534     0.369405    Uiso  ? H
   C777       1.0     0.503144     0.400137     0.362651    Uiso  ? C
   H487       1.0     0.513456     0.430107     0.392290    Uiso  ? H
   C778       1.0     0.510209     0.377741     0.347081    Uiso  ? C
   H488       1.0     0.539501     0.344334     0.342354    Uiso  ? H
   H489       1.0     0.486435     0.411998     0.356283    Uiso  ? H
   C779       1.0     0.490563     0.363585     0.328657    Uiso  ? C
   C780       1.0     0.499885     0.355071     0.304113    Uiso  ? C
   C781       1.0     0.463099     0.357610     0.334923    Uiso  ? C
   C782       1.0     0.483898     0.339180     0.286644    Uiso  ? C
   H490       1.0     0.521007     0.361594     0.297007    Uiso  ? H
   C783       1.0     0.447668     0.340746     0.317916    Uiso  ? C
   H491       1.0     0.452286     0.366078     0.352946    Uiso  ? H
   C784       1.0     0.457763     0.332936     0.291620    Uiso  ? C
   H492       1.0     0.491632     0.332662     0.267042    Uiso  ? H
   H493       1.0     0.426967     0.335369     0.324295    Uiso  ? H
   C785       1.0     0.441815     0.315876     0.271053    Uiso  ? C
   H494       1.0     0.418790     0.319366     0.275320    Uiso  ? H
   H495       1.0     0.448022     0.322680     0.250786    Uiso  ? H
   N3         1.0     0.448003     0.287599     0.272317    Uiso  ? N
   C786       1.0     0.466354     0.274122     0.256449    Uiso  ? C
   C787       1.0     0.442173     0.269696     0.292677    Uiso  ? C
   C788       1.0     0.472521     0.250083     0.267874    Uiso  ? C
   H496       1.0     0.475551     0.284855     0.239576    Uiso  ? H
   H497       1.0     0.427689     0.274660     0.307578    Uiso  ? H
   H498       1.0     0.488547     0.236690     0.258622    Uiso  ? H
   N4         1.0     0.456066     0.245814     0.290315    Uiso  ? N
   C789       1.0     0.568361     0.703969     0.318362    Uiso  ? C
   C790       1.0     0.557912     0.681099     0.305329    Uiso  ? C
   C791       1.0     0.553045     0.677709     0.349050    Uiso  ? C
   N5         1.0     0.563262     0.703474     0.345427    Uiso  ? N
   H499       1.0     0.574854     0.721585     0.306826    Uiso  ? H
   H500       1.0     0.557419     0.675976     0.282929    Uiso  ? H
   H501       1.0     0.545084     0.670640     0.367819    Uiso  ? H
   N6         1.0     0.546883     0.664750     0.324847    Uiso  ? N
   C792       1.0     0.525268     0.644417     0.319912    Uiso  ? C
   H502       1.0     0.529150     0.632629     0.299535    Uiso  ? H
   H503       1.0     0.525689     0.629215     0.336984    Uiso  ? H
   C793       1.0     0.497708     0.657302     0.316242    Uiso  ? C
   C794       1.0     0.479037     0.641422     0.300094    Uiso  ? C
   C795       1.0     0.487848     0.680553     0.330794    Uiso  ? C
   C796       1.0     0.451945     0.649321     0.297998    Uiso  ? C
   H504       1.0     0.485812     0.624290     0.288688    Uiso  ? H
   C797       1.0     0.460071     0.688483     0.326574    Uiso  ? C
   H505       1.0     0.499877     0.691950     0.345063    Uiso  ? H
   C798       1.0     0.442007     0.672631     0.310610    Uiso  ? C
   H506       1.0     0.438963     0.637672     0.284227    Uiso  ? H
   H507       1.0     0.452317     0.707258     0.334686    Uiso  ? H
   C799       1.0     0.412781     0.681965     0.306133    Uiso  ? C
   C800       1.0     0.391782     0.662953     0.303679    Uiso  ? C
   C801       1.0     0.407772     0.709779     0.299938    Uiso  ? C
   C802       1.0     0.365503     0.671143     0.297473    Uiso  ? C
   H508       1.0     0.393294     0.641657     0.309072    Uiso  ? H
   C803       1.0     0.382876     0.716611     0.288717    Uiso  ? C
   H509       1.0     0.423755     0.724599     0.297442    Uiso  ? H
   C804       1.0     0.361130     0.698081     0.286959    Uiso  ? C
   H510       1.0     0.348760     0.656008     0.297440    Uiso  ? H
   H511       1.0     0.378886     0.736623     0.281439    Uiso  ? H
   C805       1.0     0.335535     0.705564     0.272315    Uiso  ? C
   H512       1.0     0.317428     0.696442     0.281901    Uiso  ? H
   H513       1.0     0.330584     0.728444     0.273738    Uiso  ? H
   N7         1.0     0.337606     0.697707     0.244301    Uiso  ? N
   C806       1.0     0.334403     0.714195     0.222488    Uiso  ? C
   C807       1.0     0.345516     0.673790     0.232622    Uiso  ? C
   C808       1.0     0.344988     0.702186     0.199450    Uiso  ? C
   H514       1.0     0.326679     0.736807     0.223224    Uiso  ? H
   H515       1.0     0.349071     0.657082     0.244152    Uiso  ? H
   H516       1.0     0.345450     0.711349     0.179452    Uiso  ? H
   N8         1.0     0.352280     0.676734     0.206096    Uiso  ? N
   C809       1.0     0.523087     0.748000     0.726193    Uiso  ? C
   C810       1.0     0.525895     0.722785     0.737196    Uiso  ? C
   C811       1.0     0.554484     0.729411     0.704899    Uiso  ? C
   N9         1.0     0.538581     0.751402     0.704044    Uiso  ? N
   H517       1.0     0.507668     0.762546     0.733761    Uiso  ? H
   H518       1.0     0.511239     0.711451     0.750367    Uiso  ? H
   H519       1.0     0.569790     0.724809     0.689137    Uiso  ? H
   N10        1.0     0.547208     0.711572     0.724772    Uiso  ? N
   C812       1.0     0.554077     0.682237     0.724112    Uiso  ? C
   H520       1.0     0.577037     0.679279     0.722906    Uiso  ? H
   H521       1.0     0.548706     0.674072     0.743633    Uiso  ? H
   C813       1.0     0.536904     0.668524     0.703625    Uiso  ? C
   C814       1.0     0.548359     0.659868     0.678731    Uiso  ? C
   C815       1.0     0.509412     0.662579     0.709640    Uiso  ? C
   C816       1.0     0.532329     0.648242     0.659189    Uiso  ? C
   H522       1.0     0.569432     0.664715     0.676621    Uiso  ? H
   C817       1.0     0.493607     0.649166     0.690075    Uiso  ? C
   H523       1.0     0.501799     0.664425     0.730034    Uiso  ? H
   C818       1.0     0.503876     0.644613     0.663402    Uiso  ? C
   H524       1.0     0.540392     0.644599     0.638739    Uiso  ? H
   H525       1.0     0.474259     0.643233     0.693438    Uiso  ? H
   C819       1.0     0.486766     0.630296     0.642570    Uiso  ? C
   C820       1.0     0.493709     0.604049     0.632586    Uiso  ? C
   C821       1.0     0.461304     0.639535     0.636405    Uiso  ? C
   C822       1.0     0.472789     0.588675     0.618010    Uiso  ? C
   H526       1.0     0.512775     0.592964     0.636257    Uiso  ? H
   C823       1.0     0.440623     0.624300     0.623961    Uiso  ? C
   H527       1.0     0.454746     0.659428     0.644613    Uiso  ? H
   C824       1.0     0.447085     0.599318     0.612966    Uiso  ? C
   H528       1.0     0.478383     0.568669     0.612782    Uiso  ? H
   H529       1.0     0.420957     0.632564     0.622695    Uiso  ? H
   C825       1.0     0.425066     0.580970     0.602229    Uiso  ? C
   H530       1.0     0.409976     0.593216     0.592298    Uiso  ? H
   H531       1.0     0.435580     0.566118     0.588462    Uiso  ? H
   N11        1.0     0.412663     0.567588     0.625617    Uiso  ? N
   C826       1.0     0.388034     0.575340     0.636270    Uiso  ? C
   C827       1.0     0.425902     0.552819     0.645187    Uiso  ? C
   C828       1.0     0.386812     0.565370     0.663347    Uiso  ? C
   H532       1.0     0.371927     0.586774     0.625870    Uiso  ? H
   H533       1.0     0.445190     0.546649     0.642366    Uiso  ? H
   H534       1.0     0.370017     0.568861     0.677580    Uiso  ? H
   N12        1.0     0.411397     0.552695     0.668444    Uiso  ? N
   C829       1.0     0.649692     0.290870     0.801217    Uiso  ? C
   C830       1.0     0.656446     0.276197     0.777574    Uiso  ? C
   C831       1.0     0.652321     0.318491     0.767215    Uiso  ? C
   N13        1.0     0.644734     0.317107     0.793879    Uiso  ? N
   H535       1.0     0.645938     0.281231     0.819485    Uiso  ? H
   H536       1.0     0.657767     0.253883     0.775613    Uiso  ? H
   H537       1.0     0.651487     0.337436     0.756770    Uiso  ? H
   N14        1.0     0.658607     0.293961     0.756421    Uiso  ? N
   C832       1.0     0.660786     0.289050     0.726753    Uiso  ? C
   H538       1.0     0.676736     0.302690     0.719960    Uiso  ? H
   H539       1.0     0.663532     0.268161     0.723149    Uiso  ? H
   C833       1.0     0.632562     0.296120     0.714724    Uiso  ? C
   C834       1.0     0.626143     0.323048     0.705347    Uiso  ? C
   C835       1.0     0.612071     0.276238     0.712770    Uiso  ? C
   C836       1.0     0.600065     0.330829     0.700140    Uiso  ? C
   H540       1.0     0.641637     0.338667     0.710402    Uiso  ? H
   C837       1.0     0.584718     0.283653     0.706962    Uiso  ? C
   H541       1.0     0.614970     0.254911     0.720097    Uiso  ? H
   C838       1.0     0.579014     0.311125     0.699835    Uiso  ? C
   H542       1.0     0.597385     0.351587     0.695235    Uiso  ? H
   H543       1.0     0.568911     0.269349     0.709325    Uiso  ? H
   C839       1.0     0.549183     0.320574     0.694575    Uiso  ? C
   C840       1.0     0.538681     0.344379     0.705827    Uiso  ? C
   C841       1.0     0.532210     0.300781     0.682057    Uiso  ? C
   C842       1.0     0.510467     0.348858     0.703045    Uiso  ? C
   H544       1.0     0.550201     0.358861     0.717680    Uiso  ? H
   C843       1.0     0.504640     0.305697     0.681669    Uiso  ? C
   H545       1.0     0.539578     0.281717     0.673831    Uiso  ? H
   C844       1.0     0.492315     0.328660     0.692768    Uiso  ? C
   H546       1.0     0.502522     0.366129     0.713383    Uiso  ? H
   H547       1.0     0.492456     0.289195     0.672604    Uiso  ? H
   C845       1.0     0.463042     0.329864     0.699322    Uiso  ? C
   H548       1.0     0.460527     0.314615     0.716744    Uiso  ? H
   H549       1.0     0.458520     0.349954     0.707888    Uiso  ? H
   N15        1.0     0.444448     0.323350     0.677081    Uiso  ? N
   C846       1.0     0.439023     0.338466     0.655000    Uiso  ? C
   C847       1.0     0.440067     0.298107     0.667644    Uiso  ? C
   C848       1.0     0.430677     0.323034     0.633224    Uiso  ? C
   H550       1.0     0.441110     0.360956     0.656478    Uiso  ? H
   H551       1.0     0.446380     0.279515     0.678422    Uiso  ? H
   H552       1.0     0.426190     0.330708     0.613197    Uiso  ? H
   N16        1.0     0.432315     0.296387     0.640661    Uiso  ? N
   C849       1.0     0.594870     0.348003     0.452478    Uiso  ? C
   C850       1.0     0.612521     0.369978     0.452517    Uiso  ? C
   C851       1.0     0.632566     0.334646     0.470532    Uiso  ? C
   N17        1.0     0.607715     0.326454     0.463233    Uiso  ? N
   H553       1.0     0.573603     0.349827     0.446316    Uiso  ? H
   H554       1.0     0.605830     0.390581     0.449794    Uiso  ? H
   H555       1.0     0.645374     0.322236     0.483366    Uiso  ? H
   N18        1.0     0.636103     0.361339     0.463695    Uiso  ? N
   C852       1.0     0.658300     0.378309     0.474790    Uiso  ? C
   H556       1.0     0.676949     0.365342     0.480257    Uiso  ? H
   H557       1.0     0.665253     0.395087     0.459510    Uiso  ? H
   C853       1.0     0.648438     0.391630     0.500089    Uiso  ? C
   C854       1.0     0.638652     0.376888     0.520747    Uiso  ? C
   C855       1.0     0.649111     0.420468     0.501348    Uiso  ? C
   C856       1.0     0.626112     0.388968     0.543863    Uiso  ? C
   H558       1.0     0.638912     0.354147     0.521062    Uiso  ? H
   C857       1.0     0.638891     0.433511     0.524815    Uiso  ? C
   H559       1.0     0.657329     0.432699     0.485051    Uiso  ? H
   C858       1.0     0.625779     0.418262     0.545521    Uiso  ? C
   H560       1.0     0.617522     0.374208     0.558713    Uiso  ? H
   H561       1.0     0.638264     0.455582     0.524407    Uiso  ? H
   C859       1.0     0.614770     0.432311     0.569170    Uiso  ? C
   C860       1.0     0.600312     0.456869     0.567121    Uiso  ? C
   C861       1.0     0.621757     0.421966     0.595518    Uiso  ? C
   C862       1.0     0.595475     0.473190     0.589548    Uiso  ? C
   H562       1.0     0.595236     0.464887     0.546561    Uiso  ? H
   C863       1.0     0.618239     0.439433     0.617169    Uiso  ? C
   H563       1.0     0.632629     0.404131     0.597543    Uiso  ? H
   C864       1.0     0.605773     0.465354     0.615017    Uiso  ? C
   H564       1.0     0.584143     0.492388     0.586743    Uiso  ? H
   H565       1.0     0.626699     0.434876     0.637228    Uiso  ? H
   C865       1.0     0.607040     0.486071     0.636838    Uiso  ? C
   H566       1.0     0.588101     0.498773     0.639704    Uiso  ? H
   H567       1.0     0.610103     0.476632     0.657423    Uiso  ? H
   N19        1.0     0.630010     0.504329     0.631384    Uiso  ? N
   C866       1.0     0.627784     0.530436     0.623114    Uiso  ? C
   C867       1.0     0.656411     0.496313     0.626749    Uiso  ? C
   C868       1.0     0.653737     0.538080     0.614728    Uiso  ? C
   H568       1.0     0.608804     0.540052     0.620154    Uiso  ? H
   H569       1.0     0.663266     0.475563     0.629343    Uiso  ? H
   H570       1.0     0.659063     0.557765     0.605185    Uiso  ? H
   N20        1.0     0.670738     0.516741     0.616288    Uiso  ? N
   C869       1.0     0.727990     0.762241     0.530581    Uiso  ? C
   C870       1.0     0.755669     0.761401     0.534095    Uiso  ? C
   C871       1.0     0.743587     0.804594     0.532572    Uiso  ? C
   N21        1.0     0.721152     0.788499     0.529401    Uiso  ? N
   H571       1.0     0.714712     0.745418     0.526269    Uiso  ? H
   H572       1.0     0.769448     0.744335     0.532476    Uiso  ? H
   H573       1.0     0.744728     0.826448     0.529898    Uiso  ? H
   N22        1.0     0.765034     0.788266     0.536562    Uiso  ? N
   C872       1.0     0.793978     0.794910     0.533071    Uiso  ? C
   H574       1.0     0.796808     0.816513     0.540933    Uiso  ? H
   H575       1.0     0.808618     0.783875     0.547802    Uiso  ? H
   C873       1.0     0.801726     0.794004     0.503155    Uiso  ? C
   C874       1.0     0.789797     0.809777     0.482516    Uiso  ? C
   C875       1.0     0.825453     0.778263     0.496618    Uiso  ? C
   C876       1.0     0.798686     0.807446     0.455559    Uiso  ? C
   H576       1.0     0.774796     0.824846     0.487367    Uiso  ? H
   C877       1.0     0.835227     0.776376     0.469689    Uiso  ? C
   H577       1.0     0.835569     0.765236     0.511736    Uiso  ? H
   C878       1.0     0.821242     0.790464     0.448528    Uiso  ? C
   H578       1.0     0.788869     0.818974     0.439664    Uiso  ? H
   H579       1.0     0.851271     0.762358     0.464871    Uiso  ? H
   C879       1.0     0.830022     0.786700     0.420138    Uiso  ? C
   C880       1.0     0.857719     0.786921     0.410781    Uiso  ? C
   C881       1.0     0.809387     0.781166     0.400860    Uiso  ? C
   C882       1.0     0.864263     0.783460     0.383362    Uiso  ? C
   H580       1.0     0.875174     0.792095     0.424654    Uiso  ? H
   C883       1.0     0.816589     0.774781     0.374240    Uiso  ? C
   H581       1.0     0.788127     0.780285     0.407234    Uiso  ? H
   C884       1.0     0.843609     0.774808     0.365272    Uiso  ? C
   H582       1.0     0.884895     0.782110     0.375890    Uiso  ? H
   H583       1.0     0.799690     0.770478     0.360314    Uiso  ? H
   C885       1.0     0.849595     0.764320     0.337984    Uiso  ? C
   H584       1.0     0.836147     0.774389     0.321075    Uiso  ? H
   H585       1.0     0.871228     0.768321     0.333259    Uiso  ? H
   N23        1.0     0.845474     0.734734     0.336853    Uiso  ? N
   C886       1.0     0.833463     0.720334     0.316571    Uiso  ? C
   C887       1.0     0.853238     0.717198     0.356285    Uiso  ? C
   C888       1.0     0.831789     0.693698     0.325981    Uiso  ? C
   H586       1.0     0.826197     0.727925     0.297567    Uiso  ? H
   H587       1.0     0.863167     0.724026     0.374874    Uiso  ? H
   H588       1.0     0.823818     0.676523     0.314236    Uiso  ? H
   N24        1.0     0.845394     0.691556     0.349661    Uiso  ? N
   C889       1.0     0.168390     0.291432     0.676515    Uiso  ? C
   C890       1.0     0.168270     0.262451     0.680579    Uiso  ? C
   C891       1.0     0.147399     0.271665     0.643069    Uiso  ? C
   N25        1.0     0.154845     0.296974     0.653217    Uiso  ? N
   H589       1.0     0.176488     0.306607     0.690742    Uiso  ? H
   H590       1.0     0.175429     0.251534     0.697670    Uiso  ? H
   H591       1.0     0.132631     0.269435     0.626933    Uiso  ? H
   N26        1.0     0.154810     0.250896     0.659661    Uiso  ? N
   C892       1.0     0.149112     0.222604     0.655440    Uiso  ? C
   H592       1.0     0.160839     0.209952     0.669720    Uiso  ? H
   H593       1.0     0.127086     0.221036     0.660068    Uiso  ? H
   C893       1.0     0.153291     0.214382     0.625373    Uiso  ? C
   C894       1.0     0.132044     0.216214     0.605942    Uiso  ? C
   C895       1.0     0.178770     0.204661     0.616069    Uiso  ? C
   C896       1.0     0.137241     0.210616     0.577809    Uiso  ? C
   H594       1.0     0.111025     0.217287     0.612641    Uiso  ? H
   C897       1.0     0.183985     0.200989     0.588816    Uiso  ? C
   H595       1.0     0.196492     0.201842     0.629589    Uiso  ? H
   C898       1.0     0.164140     0.205115     0.568820    Uiso  ? C
   H596       1.0     0.119074     0.210823     0.562421    Uiso  ? H
   H597       1.0     0.204868     0.195525     0.583225    Uiso  ? H
   C899       1.0     0.170388     0.200971     0.538543    Uiso  ? C
   C900       1.0     0.188309     0.180620     0.531803    Uiso  ? C
   C901       1.0     0.161419     0.219299     0.519739    Uiso  ? C
   C902       1.0     0.195820     0.176897     0.504689    Uiso  ? C
   H598       1.0     0.196447     0.164461     0.545455    Uiso  ? H
   C903       1.0     0.169202     0.216422     0.492731    Uiso  ? C
   H599       1.0     0.151077     0.237925     0.526232    Uiso  ? H
   C904       1.0     0.184574     0.193742     0.485006    Uiso  ? C
   H600       1.0     0.205068     0.157134     0.498468    Uiso  ? H
   H601       1.0     0.164085     0.232706     0.477709    Uiso  ? H
   C905       1.0     0.196684     0.190901     0.456975    Uiso  ? C
   H602       1.0     0.196758     0.169394     0.449446    Uiso  ? H
   H603       1.0     0.183339     0.201568     0.441134    Uiso  ? H
   N27        1.0     0.224340     0.201478     0.457548    Uiso  ? N
   C906       1.0     0.232532     0.226712     0.450151    Uiso  ? C
   C907       1.0     0.247687     0.188474     0.463513    Uiso  ? C
   C908       1.0     0.260297     0.230510     0.454684    Uiso  ? C
   H604       1.0     0.219405     0.241175     0.440980    Uiso  ? H
   H605       1.0     0.247992     0.168149     0.470519    Uiso  ? H
   H606       1.0     0.271641     0.248601     0.447347    Uiso  ? H
   N28        1.0     0.270044     0.204659     0.461902    Uiso  ? N
   C909       1.0     0.330565     0.478983     0.361146    Uiso  ? C
   C910       1.0     0.357260     0.475774     0.357215    Uiso  ? C
   C911       1.0     0.348766     0.469350     0.400420    Uiso  ? C
   N29        1.0     0.324483     0.473868     0.387778    Uiso  ? N
   H607       1.0     0.315635     0.485863     0.346689    Uiso  ? H
   H608       1.0     0.369099     0.484669     0.339860    Uiso  ? H
   H609       1.0     0.350831     0.473983     0.423027    Uiso  ? H
   N30        1.0     0.369273     0.470771     0.382017    Uiso  ? N
   C912       1.0     0.397610     0.477520     0.387377    Uiso  ? C
   H610       1.0     0.406789     0.459815     0.397873    Uiso  ? H
   H611       1.0     0.410700     0.479186     0.367774    Uiso  ? H
   C913       1.0     0.400493     0.505376     0.402943    Uiso  ? C
   C914       1.0     0.402193     0.504838     0.430466    Uiso  ? C
   C915       1.0     0.390907     0.529315     0.390528    Uiso  ? C
   C916       1.0     0.395386     0.526249     0.447490    Uiso  ? C
   H612       1.0     0.409823     0.485374     0.439805    Uiso  ? H
   C917       1.0     0.380617     0.550104     0.407430    Uiso  ? C
   H613       1.0     0.387098     0.530037     0.368068    Uiso  ? H
   C918       1.0     0.381098     0.547739     0.436062    Uiso  ? C
   H614       1.0     0.399108     0.524425     0.469405    Uiso  ? H
   H615       1.0     0.369330     0.566512     0.398221    Uiso  ? H
   C919       1.0     0.367564     0.567077     0.454962    Uiso  ? C
   C920       1.0     0.367797     0.593813     0.447203    Uiso  ? C
   C921       1.0     0.351996     0.558901     0.478184    Uiso  ? C
   C922       1.0     0.353270     0.612831     0.462634    Uiso  ? C
   H616       1.0     0.378853     0.602084     0.429366    Uiso  ? H
   C923       1.0     0.338616     0.578539     0.493420    Uiso  ? C
   H617       1.0     0.350919     0.537190     0.483270    Uiso  ? H
   C924       1.0     0.340613     0.605578     0.486613    Uiso  ? C
   H618       1.0     0.351062     0.632670     0.453758    Uiso  ? H
   H619       1.0     0.326681     0.572797     0.511184    Uiso  ? H
   C925       1.0     0.329036     0.628612     0.502847    Uiso  ? C
   H620       1.0     0.316631     0.641702     0.488593    Uiso  ? H
   H621       1.0     0.316535     0.620116     0.519858    Uiso  ? H
   N31        1.0     0.350796     0.644701     0.514532    Uiso  ? N
   C926       1.0     0.363066     0.641295     0.538870    Uiso  ? C
   C927       1.0     0.363361     0.666116     0.502313    Uiso  ? C
   C928       1.0     0.382341     0.661446     0.541782    Uiso  ? C
   H622       1.0     0.356893     0.626050     0.554939    Uiso  ? H
   H623       1.0     0.356379     0.674591     0.483113    Uiso  ? H
   H624       1.0     0.393423     0.666230     0.560696    Uiso  ? H
   N32        1.0     0.383177     0.675742     0.518374    Uiso  ? N
   C929       1.0     0.596602     0.709454     0.241701    Uiso  ? C
   C930       1.0     0.615271     0.722979     0.257933    Uiso  ? C
   C931       1.0     0.627713     0.680105     0.253799    Uiso  ? C
   N33        1.0     0.605441     0.682951     0.238205    Uiso  ? N
   H625       1.0     0.578217     0.719944     0.231871    Uiso  ? H
   H626       1.0     0.613631     0.743705     0.264935    Uiso  ? H
   H627       1.0     0.640148     0.661980     0.255870    Uiso  ? H
   N34        1.0     0.634997     0.704750     0.264976    Uiso  ? N
   C932       1.0     0.659267     0.710172     0.280854    Uiso  ? C
   H628       1.0     0.675641     0.711950     0.267735    Uiso  ? H
   H629       1.0     0.657321     0.729485     0.293873    Uiso  ? H
   C933       1.0     0.666155     0.686547     0.300237    Uiso  ? C
   C934       1.0     0.646799     0.682703     0.321435    Uiso  ? C
   C935       1.0     0.685296     0.665200     0.294247    Uiso  ? C
   C936       1.0     0.644327     0.656182     0.333149    Uiso  ? C
   H630       1.0     0.632509     0.698096     0.325883    Uiso  ? H
   C937       1.0     0.680958     0.638582     0.306218    Uiso  ? C
   H631       1.0     0.699553     0.667322     0.277935    Uiso  ? H
   C938       1.0     0.660085     0.634800     0.324100    Uiso  ? C
   H632       1.0     0.630084     0.653383     0.349690    Uiso  ? H
   H633       1.0     0.691527     0.621144     0.298284    Uiso  ? H
   C939       1.0     0.653292     0.606529     0.332366    Uiso  ? C
   C940       1.0     0.650184     0.585556     0.312609    Uiso  ? C
   C941       1.0     0.648994     0.599568     0.359950    Uiso  ? C
   C942       1.0     0.638724     0.560854     0.318869    Uiso  ? C
   H634       1.0     0.655745     0.591229     0.291221    Uiso  ? H
   C943       1.0     0.637528     0.574283     0.366639    Uiso  ? C
   H635       1.0     0.653686     0.615154     0.375001    Uiso  ? H
   C944       1.0     0.631654     0.555168     0.346370    Uiso  ? C
   H636       1.0     0.636471     0.545102     0.304203    Uiso  ? H
   H637       1.0     0.633351     0.569094     0.386578    Uiso  ? H
   C945       1.0     0.622344     0.527107     0.354001    Uiso  ? C
   H638       1.0     0.612956     0.526903     0.375293    Uiso  ? H
   H639       1.0     0.606122     0.520343     0.338932    Uiso  ? H
   N35        1.0     0.646466     0.509129     0.355774    Uiso  ? N
   C946       1.0     0.654066     0.490248     0.337644    Uiso  ? C
   C947       1.0     0.665999     0.509428     0.374892    Uiso  ? C
   C948       1.0     0.678339     0.479081     0.346742    Uiso  ? C
   H640       1.0     0.641201     0.484059     0.320584    Uiso  ? H
   H641       1.0     0.666560     0.525791     0.390417    Uiso  ? H
   H642       1.0     0.689839     0.462440     0.337372    Uiso  ? H
   N36        1.0     0.686588     0.492220     0.369998    Uiso  ? N
   C949       1.0     0.312757     0.445309     0.286084    Uiso  ? C
   C950       1.0     0.302707     0.434676     0.309761    Uiso  ? C
   C951       1.0     0.344847     0.421696     0.303908    Uiso  ? C
   N37        1.0     0.339556     0.438669     0.283025    Uiso  ? N
   H643       1.0     0.301364     0.458556     0.271777    Uiso  ? H
   H644       1.0     0.282547     0.435806     0.317591    Uiso  ? H
   H645       1.0     0.362255     0.407282     0.305290    Uiso  ? H
   N38        1.0     0.322881     0.420429     0.321304    Uiso  ? N
   C952       1.0     0.322480     0.409023     0.349354    Uiso  ? C
   H646       1.0     0.344189     0.406615     0.356698    Uiso  ? H
   H647       1.0     0.313190     0.424534     0.363837    Uiso  ? H
   C953       1.0     0.307652     0.381662     0.348927    Uiso  ? C
   C954       1.0     0.323251     0.357792     0.347093    Uiso  ? C
   C955       1.0     0.279696     0.380644     0.347480    Uiso  ? C
   C956       1.0     0.310833     0.332395     0.347167    Uiso  ? C
   H648       1.0     0.345467     0.357931     0.348402    Uiso  ? H
   C957       1.0     0.265405     0.356185     0.347656    Uiso  ? C
   H649       1.0     0.267231     0.398785     0.346480    Uiso  ? H
   C958       1.0     0.282026     0.331305     0.349626    Uiso  ? C
   H650       1.0     0.322603     0.313775     0.349747    Uiso  ? H
   H651       1.0     0.243345     0.356175     0.350004    Uiso  ? H
   C959       1.0     0.268317     0.305135     0.352490    Uiso  ? C
   C960       1.0     0.246512     0.298309     0.335408    Uiso  ? C
   C961       1.0     0.278346     0.286390     0.371922    Uiso  ? C
   C962       1.0     0.231473     0.274858     0.341310    Uiso  ? C
   H652       1.0     0.241699     0.310575     0.318979    Uiso  ? H
   C963       1.0     0.263752     0.262721     0.377264    Uiso  ? C
   H653       1.0     0.295840     0.291291     0.386036    Uiso  ? H
   C964       1.0     0.240172     0.257692     0.363381    Uiso  ? C
   H654       1.0     0.214082     0.268676     0.331063    Uiso  ? H
   H655       1.0     0.270850     0.249970     0.393371    Uiso  ? H
   C965       1.0     0.222494     0.233906     0.373028    Uiso  ? C
   H656       1.0     0.215881     0.220744     0.355827    Uiso  ? H
   H657       1.0     0.234505     0.218555     0.386280    Uiso  ? H
   N39        1.0     0.198259     0.244336     0.387283    Uiso  ? N
   C966       1.0     0.175311     0.231318     0.393247    Uiso  ? C
   C967       1.0     0.194515     0.270442     0.395655    Uiso  ? C
   C968       1.0     0.158236     0.250680     0.404998    Uiso  ? C
   H658       1.0     0.169734     0.209717     0.391756    Uiso  ? H
   H659       1.0     0.209963     0.285605     0.392073    Uiso  ? H
   H660       1.0     0.136501     0.248388     0.410544    Uiso  ? H
   N40        1.0     0.170605     0.274302     0.407046    Uiso  ? N
   C969       1.0     0.317790     0.522154     0.662660    Uiso  ? C
   C970       1.0     0.344009     0.514715     0.668965    Uiso  ? C
   C971       1.0     0.333066     0.494518     0.631897    Uiso  ? C
   N41        1.0     0.311111     0.509591     0.639477    Uiso  ? N
   H661       1.0     0.304888     0.534349     0.675697    Uiso  ? H
   H662       1.0     0.354910     0.518478     0.689521    Uiso  ? H
   H663       1.0     0.333497     0.481492     0.613397    Uiso  ? H
   N42        1.0     0.352877     0.497562     0.649288    Uiso  ? N
   C972       1.0     0.377747     0.482091     0.649523    Uiso  ? C
   H664       1.0     0.387104     0.484452     0.629139    Uiso  ? H
   H665       1.0     0.391600     0.490973     0.663963    Uiso  ? H
   C973       1.0     0.369944     0.452734     0.656341    Uiso  ? C
   C974       1.0     0.360662     0.446642     0.682715    Uiso  ? C
   C975       1.0     0.369641     0.433016     0.634863    Uiso  ? C
   C976       1.0     0.350800     0.420269     0.687125    Uiso  ? C
   H666       1.0     0.359571     0.460717     0.698913    Uiso  ? H
   C977       1.0     0.361727     0.405617     0.641589    Uiso  ? C
   H667       1.0     0.378996     0.438352     0.614219    Uiso  ? H
   C978       1.0     0.351951     0.399090     0.667671    Uiso  ? C
   H668       1.0     0.343488     0.415420     0.707150    Uiso  ? H
   H669       1.0     0.361020     0.392129     0.624486    Uiso  ? H
   C979       1.0     0.343725     0.370665     0.674088    Uiso  ? C
   C980       1.0     0.358358     0.349191     0.662529    Uiso  ? C
   C981       1.0     0.325802     0.365378     0.697852    Uiso  ? C
   C982       1.0     0.358037     0.323211     0.674029    Uiso  ? C
   H670       1.0     0.370189     0.352462     0.644228    Uiso  ? H
   C983       1.0     0.325692     0.338687     0.708407    Uiso  ? C
   H671       1.0     0.316132     0.381328     0.709028    Uiso  ? H
   C984       1.0     0.340985     0.318068     0.696398    Uiso  ? C
   H672       1.0     0.372015     0.308079     0.663926    Uiso  ? H
   H673       1.0     0.314100     0.335130     0.725549    Uiso  ? H
   C985       1.0     0.343807     0.291865     0.711457    Uiso  ? C
   H674       1.0     0.325894     0.288598     0.724841    Uiso  ? H
   H675       1.0     0.342819     0.273159     0.696752    Uiso  ? H
   N43        1.0     0.367413     0.293989     0.728930    Uiso  ? N
   C986       1.0     0.392444     0.281359     0.726849    Uiso  ? C
   C987       1.0     0.370396     0.312329     0.749270    Uiso  ? C
   C988       1.0     0.409112     0.294188     0.744523    Uiso  ? C
   H676       1.0     0.396774     0.265307     0.712561    Uiso  ? H
   H677       1.0     0.355983     0.327329     0.751939    Uiso  ? H
   H678       1.0     0.430651     0.289161     0.746982    Uiso  ? H
   N44        1.0     0.395964     0.313347     0.758990    Uiso  ? N
   C989       1.0     0.655154     0.566919     0.687015    Uiso  ? C
   C990       1.0     0.679958     0.569561     0.672469    Uiso  ? C
   C991       1.0     0.687989     0.556254     0.714103    Uiso  ? C
   N45        1.0     0.660267     0.558464     0.712332    Uiso  ? N
   H679       1.0     0.634862     0.572523     0.679862    Uiso  ? H
   H680       1.0     0.682794     0.578881     0.652336    Uiso  ? H
   H681       1.0     0.699055     0.551707     0.732050    Uiso  ? H
   N46        1.0     0.700146     0.561310     0.690200    Uiso  ? N
   C992       1.0     0.729800     0.564996     0.684664    Uiso  ? C
   H682       1.0     0.741060     0.555295     0.702568    Uiso  ? H
   H683       1.0     0.734782     0.554913     0.664410    Uiso  ? H
   C993       1.0     0.738590     0.594665     0.683787    Uiso  ? C
   C994       1.0     0.765372     0.600676     0.675200    Uiso  ? C
   C995       1.0     0.722886     0.616117     0.695906    Uiso  ? C
   C996       1.0     0.774731     0.627518     0.674156    Uiso  ? C
   H684       1.0     0.776973     0.583730     0.666567    Uiso  ? H
   C997       1.0     0.732312     0.641962     0.694370    Uiso  ? C
   H685       1.0     0.702857     0.611864     0.703644    Uiso  ? H
   C998       1.0     0.757595     0.648622     0.683871    Uiso  ? C
   H686       1.0     0.793925     0.633163     0.663772    Uiso  ? H
   H687       1.0     0.718151     0.656258     0.704733    Uiso  ? H
   C999       1.0     0.765263     0.677047     0.682051    Uiso  ? C
   C1000      1.0     0.790433     0.685709     0.693947    Uiso  ? C
   C1001      1.0     0.750885     0.694953     0.664513    Uiso  ? C
   C1002      1.0     0.800796     0.712063     0.688620    Uiso  ? C
   H688       1.0     0.801438     0.672682     0.707311    Uiso  ? H
   C1003      1.0     0.760598     0.721683     0.661043    Uiso  ? C
   H689       1.0     0.733439     0.686868     0.653520    Uiso  ? H
   C1004      1.0     0.785656     0.729088     0.670911    Uiso  ? C
   H690       1.0     0.817987     0.719441     0.699177    Uiso  ? H
   H691       1.0     0.751807     0.735546     0.646718    Uiso  ? H
   C1005      1.0     0.798919     0.752843     0.657926    Uiso  ? C
   H692       1.0     0.783797     0.770361     0.657341    Uiso  ? H
   H693       1.0     0.816018     0.760142     0.669762    Uiso  ? H
   N47        1.0     0.810454     0.746395     0.631821    Uiso  ? N
   C1006      1.0     0.800770     0.752690     0.607221    Uiso  ? C
   C1007      1.0     0.828616     0.726461     0.625525    Uiso  ? C
   C1008      1.0     0.812177     0.736006     0.587823    Uiso  ? C
   H694       1.0     0.781430     0.764936     0.604116    Uiso  ? H
   H695       1.0     0.839457     0.715395     0.641552    Uiso  ? H
   H696       1.0     0.805545     0.733882     0.567050    Uiso  ? H
   N48        1.0     0.830629     0.719236     0.599259    Uiso  ? N
   C1009      1.0     0.490044     0.751821     0.798303    Uiso  ? C
   C1010      1.0     0.498783     0.777515     0.796388    Uiso  ? C
   C1011      1.0     0.526523     0.755098     0.821029    Uiso  ? C
   N49        1.0     0.507026     0.736989     0.814609    Uiso  ? N
   H697       1.0     0.471528     0.743053     0.788319    Uiso  ? H
   H698       1.0     0.490702     0.794019     0.783304    Uiso  ? H
   H699       1.0     0.544076     0.750355     0.832867    Uiso  ? H
   N50        1.0     0.521944     0.779224     0.809302    Uiso  ? N
   C1012      1.0     0.540926     0.802237     0.809662    Uiso  ? C
   H700       1.0     0.530088     0.818255     0.797897    Uiso  ? H
   H701       1.0     0.543681     0.808683     0.830612    Uiso  ? H
   C1013      1.0     0.566954     0.793559     0.794934    Uiso  ? C
   C1014      1.0     0.587927     0.779267     0.809110    Uiso  ? C
   C1015      1.0     0.569571     0.795362     0.765782    Uiso  ? C
   C1016      1.0     0.611781     0.771852     0.796372    Uiso  ? C
   H702       1.0     0.586347     0.775695     0.830854    Uiso  ? H
   C1017      1.0     0.590047     0.782241     0.752890    Uiso  ? C
   H703       1.0     0.554723     0.804721     0.753270    Uiso  ? H
   C1018      1.0     0.612834     0.772757     0.767387    Uiso  ? C
   H704       1.0     0.627711     0.765218     0.809903    Uiso  ? H
   H705       1.0     0.588085     0.783272     0.729875    Uiso  ? H
   C1019      1.0     0.638358     0.762750     0.751882    Uiso  ? C
   C1020      1.0     0.654676     0.740397     0.761356    Uiso  ? C
   C1021      1.0     0.646327     0.777214     0.728558    Uiso  ? C
   C1022      1.0     0.676777     0.732512     0.745508    Uiso  ? C
   H706       1.0     0.649540     0.728471     0.780781    Uiso  ? H
   C1023      1.0     0.669362     0.770333     0.714853    Uiso  ? C
   H707       1.0     0.636569     0.796519     0.722106    Uiso  ? H
   C1024      1.0     0.684711     0.747416     0.722548    Uiso  ? C
   H708       1.0     0.686889     0.712553     0.748343    Uiso  ? H
   H709       1.0     0.676702     0.781092     0.697680    Uiso  ? H
   C1025      1.0     0.708816     0.737789     0.705259    Uiso  ? C
   H710       1.0     0.704922     0.717312     0.697727    Uiso  ? H
   H711       1.0     0.713199     0.750175     0.685884    Uiso  ? H
   N51        1.0     0.733987     0.735340     0.722120    Uiso  ? N
   C1026      1.0     0.740958     0.713500     0.737502    Uiso  ? C
   C1027      1.0     0.750540     0.756125     0.729914    Uiso  ? C
   C1028      1.0     0.761608     0.720960     0.753180    Uiso  ? C
   H712       1.0     0.730053     0.694475     0.737512    Uiso  ? H
   H713       1.0     0.746226     0.778007     0.725575    Uiso  ? H
   H714       1.0     0.768044     0.709274     0.771071    Uiso  ? H
   N52        1.0     0.768295     0.747414     0.748374    Uiso  ? N
   C1029      1.0     0.766394     0.525824     0.142944    Uiso  ? C
   C1030      1.0     0.793551     0.519134     0.138250    Uiso  ? C
   C1031      1.0     0.770170     0.483240     0.131651    Uiso  ? C
   N53        1.0     0.751995     0.502790     0.139194    Uiso  ? N
   H715       1.0     0.757834     0.542481     0.154198    Uiso  ? H
   H716       1.0     0.809808     0.534222     0.139744    Uiso  ? H
   H717       1.0     0.762608     0.462727     0.126406    Uiso  ? H
   N54        1.0     0.796012     0.492734     0.130782    Uiso  ? N
   C1032      1.0     0.820420     0.478366     0.121203    Uiso  ? C
   H718       1.0     0.839385     0.492276     0.120164    Uiso  ? H
   H719       1.0     0.825942     0.462780     0.136684    Uiso  ? H
   C1033      1.0     0.814418     0.462864     0.895756    Uiso  ? C
   C1034      1.0     0.803752     0.477378     0.873930    Uiso  ? C
   C1035      1.0     0.824911     0.437146     0.890915    Uiso  ? C
   C1036      1.0     0.802170     0.465168     0.847763    Uiso  ? C
   H720       1.0     0.798858     0.498764     0.876298    Uiso  ? H
   C1037      1.0     0.819884     0.423039     0.866744    Uiso  ? C
   H721       1.0     0.835953     0.427163     0.106464    Uiso  ? H
   C1038      1.0     0.808534     0.437207     0.844246    Uiso  ? C
   H722       1.0     0.793888     0.478110     0.831001    Uiso  ? H
   H723       1.0     0.827649     0.401521     0.865959    Uiso  ? H
   C1039      1.0     0.802935     0.422093     0.818087    Uiso  ? C
   C1040      1.0     0.822855     0.403559     0.807521    Uiso  ? C
   C1041      1.0     0.777026     0.422015     0.806614    Uiso  ? C
   C1042      1.0     0.817957     0.386887     0.784533    Uiso  ? C
   H724       1.0     0.842742     0.402398     0.818285    Uiso  ? H
   C1043      1.0     0.771474     0.403949     0.784631    Uiso  ? C
   H725       1.0     0.759985     0.434921     0.814206    Uiso  ? H
   C1044      1.0     0.792054     0.387259     0.773933    Uiso  ? C
   H726       1.0     0.832347     0.374339     0.774217    Uiso  ? H
   H727       1.0     0.749734     0.401085     0.778649    Uiso  ? H
   C1045      1.0     0.787048     0.368874     0.749171    Uiso  ? C
   H728       1.0     0.768968     0.376414     0.737265    Uiso  ? H
   H729       1.0     0.806136     0.366677     0.736002    Uiso  ? H
   N55        1.0     0.780514     0.340486     0.760056    Uiso  ? N
   C1046      1.0     0.761923     0.324438     0.748106    Uiso  ? C
   C1047      1.0     0.792950     0.326137     0.780127    Uiso  ? C
   C1048      1.0     0.762657     0.300225     0.761474    Uiso  ? C
   H730       1.0     0.753257     0.329001     0.727681    Uiso  ? H
   H731       1.0     0.809186     0.333499     0.793174    Uiso  ? H
   H732       1.0     0.752443     0.282441     0.753687    Uiso  ? H
   N56        1.0     0.782794     0.300419     0.781754    Uiso  ? N
   C1049      1.0     0.241662     0.705931     0.228801    Uiso  ? C
   C1050      1.0     0.248801     0.679351     0.235101    Uiso  ? C
   C1051      1.0     0.208133     0.679696     0.219051    Uiso  ? C
   N57        1.0     0.217287     0.705144     0.216994    Uiso  ? N
   H733       1.0     0.255092     0.723215     0.227175    Uiso  ? H
   H734       1.0     0.268073     0.671967     0.244961    Uiso  ? H
   H735       1.0     0.188364     0.673453     0.211041    Uiso  ? H
   N58        1.0     0.226947     0.662755     0.229126    Uiso  ? N
   C1052      1.0     0.222386     0.633843     0.236718    Uiso  ? C
   H736       1.0     0.240203     0.625206     0.247126    Uiso  ? H
   H737       1.0     0.205539     0.633195     0.250567    Uiso  ? H
   C1053      1.0     0.214945     0.617523     0.211193    Uiso  ? C
   C1054      1.0     0.187327     0.610969     0.206646    Uiso  ? C
   C1055      1.0     0.234196     0.613169     0.190776    Uiso  ? C
   C1056      1.0     0.179203     0.599594     0.182265    Uiso  ? C
   H738       1.0     0.172230     0.615493     0.224160    Uiso  ? H
   C1057      1.0     0.225682     0.604221     0.165973    Uiso  ? C
   H739       1.0     0.256265     0.614919     0.195754    Uiso  ? H
   C1058      1.0     0.198649     0.596256     0.161235    Uiso  ? C
   H740       1.0     0.157782     0.595364     0.179227    Uiso  ? H
   H741       1.0     0.239277     0.599805     0.149680    Uiso  ? H
   C1059      1.0     0.190216     0.581735     0.136833    Uiso  ? C
   C1060      1.0     0.178163     0.555728     0.137514    Uiso  ? C
   C1061      1.0     0.195533     0.593013     0.110657    Uiso  ? C
   C1062      1.0     0.173379     0.540238     0.113345    Uiso  ? C
   H742       1.0     0.174293     0.547445     0.157543    Uiso  ? H
   C1063      1.0     0.190046     0.576977     0.886614    Uiso  ? C
   H743       1.0     0.206176     0.611887     0.109091    Uiso  ? H
   C1064      1.0     0.181170     0.550043     0.889034    Uiso  ? C
   H744       1.0     0.164075     0.519862     0.113835    Uiso  ? H
   H745       1.0     0.197807     0.585157     0.867427    Uiso  ? H
   C1065      1.0     0.179880     0.533018     0.863694    Uiso  ? C
   H746       1.0     0.161070     0.519312     0.863774    Uiso  ? H
   H747       1.0     0.177774     0.545503     0.844355    Uiso  ? H
   N59        1.0     0.203298     0.516583     0.862047    Uiso  ? N
   C1066      1.0     0.202959     0.488890     0.859017    Uiso  ? C
   C1067      1.0     0.229666     0.523720     0.858782    Uiso  ? C
   C1068      1.0     0.229877     0.479658     0.855083    Uiso  ? C
   H748       1.0     0.185534     0.477039     0.863441    Uiso  ? H
   H749       1.0     0.237993     0.543657     0.859706    Uiso  ? H
   H750       1.0     0.235760     0.457892     0.855378    Uiso  ? H
   N60        1.0     0.245921     0.501894     0.854417    Uiso  ? N
   C1069      1.0     0.237361     0.299331     0.252039    Uiso  ? C
   C1070      1.0     0.257009     0.303941     0.269451    Uiso  ? C
   C1071      1.0     0.253366     0.261337     0.263602    Uiso  ? C
   N61        1.0     0.234243     0.271980     0.247439    Uiso  ? N
   H751       1.0     0.224649     0.313674     0.241917    Uiso  ? H
   H752       1.0     0.264404     0.324473     0.275995    Uiso  ? H
   H753       1.0     0.256784     0.240112     0.265511    Uiso  ? H
   N62        1.0     0.267975     0.280683     0.277587    Uiso  ? N
   C1072      1.0     0.292340     0.274989     0.295181    Uiso  ? C
   H754       1.0     0.300407     0.293047     0.305325    Uiso  ? H
   H755       1.0     0.286832     0.262369     0.313394    Uiso  ? H
   C1073      1.0     0.315175     0.261550     0.277029    Uiso  ? C
   C1074      1.0     0.321928     0.271185     0.249518    Uiso  ? C
   C1075      1.0     0.328799     0.238082     0.287053    Uiso  ? C
   C1076      1.0     0.343379     0.258781     0.234688    Uiso  ? C
   H756       1.0     0.310465     0.288016     0.238935    Uiso  ? H
   C1077      1.0     0.348731     0.224467     0.270105    Uiso  ? C
   H757       1.0     0.320460     0.227386     0.305928    Uiso  ? H
   C1078      1.0     0.356666     0.235856     0.244442    Uiso  ? C
   H758       1.0     0.349754     0.266568     0.216310    Uiso  ? H
   H759       1.0     0.356140     0.204917     0.274439    Uiso  ? H
   C1079      1.0     0.381235     0.225111     0.229974    Uiso  ? C
   C1080      1.0     0.404499     0.217839     0.244722    Uiso  ? C
   C1081      1.0     0.382500     0.224291     0.200930    Uiso  ? C
   C1082      1.0     0.427693     0.208533     0.231497    Uiso  ? C
   H760       1.0     0.403884     0.218782     0.266721    Uiso  ? H
   C1083      1.0     0.405587     0.213344     0.188286    Uiso  ? C
   H761       1.0     0.363602     0.230815     0.189606    Uiso  ? H
   C1084      1.0     0.427846     0.204440     0.203481    Uiso  ? C
   H762       1.0     0.446057     0.203157     0.243710    Uiso  ? H
   H763       1.0     0.407014     0.213638     0.166159    Uiso  ? H
   C1085      1.0     0.454478     0.196314     0.190471    Uiso  ? C
   H764       1.0     0.464340     0.177684     0.201173    Uiso  ? H
   H765       1.0     0.453660     0.189611     0.168944    Uiso  ? H
   N63        1.0     0.473364     0.220086     0.191849    Uiso  ? N
   C1086      1.0     0.497362     0.221343     0.203704    Uiso  ? C
   C1087      1.0     0.469015     0.246006     0.180969    Uiso  ? C
   C1088      1.0     0.508026     0.247879     0.202612    Uiso  ? C
   H766       1.0     0.507981     0.205215     0.214349    Uiso  ? H
   H767       1.0     0.453353     0.252767     0.166464    Uiso  ? H
   H768       1.0     0.527038     0.255609     0.211297    Uiso  ? H
   N64        1.0     0.490340     0.263191     0.187842    Uiso  ? N
   C1089      1.0     0.660263     0.182913     0.701025    Uiso  ? C
   C1090      1.0     0.684027     0.194321     0.711690    Uiso  ? C
   C1091      1.0     0.679476     0.204745     0.669020    Uiso  ? C
   N65        1.0     0.656972     0.191023     0.674702    Uiso  ? N
   H769       1.0     0.645300     0.172499     0.713287    Uiso  ? H
   H770       1.0     0.689751     0.195664     0.731700    Uiso  ? H
   H771       1.0     0.684926     0.211596     0.649538    Uiso  ? H
   N66        1.0     0.696877     0.207394     0.691435    Uiso  ? N
   C1092      1.0     0.721189     0.223894     0.693209    Uiso  ? C
   H772       1.0     0.717709     0.246288     0.689180    Uiso  ? H
   H773       1.0     0.732145     0.221750     0.712643    Uiso  ? H
   C1093      1.0     0.744033     0.212953     0.675080    Uiso  ? C
   C1094      1.0     0.753228     0.227648     0.653318    Uiso  ? C
   C1095      1.0     0.755769     0.187732     0.680520    Uiso  ? C
   C1096      1.0     0.773349     0.216167     0.635887    Uiso  ? C
   H774       1.0     0.746263     0.247922     0.649748    Uiso  ? H
   C1097      1.0     0.774863     0.175306     0.663474    Uiso  ? C
   H775       1.0     0.751699     0.177997     0.699105    Uiso  ? H
   C1098      1.0     0.783981     0.189463     0.640653    Uiso  ? C
   H776       1.0     0.780060     0.228417     0.618776    Uiso  ? H
   H777       1.0     0.784633     0.156862     0.670494    Uiso  ? H
   C1099      1.0     0.808391     0.178908     0.625516    Uiso  ? C
   C1100      1.0     0.829806     0.195893     0.618079    Uiso  ? C
   C1101      1.0     0.809254     0.150690     0.617554    Uiso  ? C
   C1102      1.0     0.851731     0.186869     0.604124    Uiso  ? C
   H778       1.0     0.830460     0.216071     0.626062    Uiso  ? H
   C1103      1.0     0.830595     0.142012     0.601258    Uiso  ? C
   H779       1.0     0.793929     0.135836     0.621798    Uiso  ? H
   C1104      1.0     0.853475     0.158628     0.595857    Uiso  ? C
   H780       1.0     0.868704     0.200286     0.600125    Uiso  ? H
   H781       1.0     0.832424     0.120157     0.599854    Uiso  ? H
   C1105      1.0     0.879218     0.147008     0.585106    Uiso  ? C
   H782       1.0     0.875714     0.129761     0.570515    Uiso  ? H
   H783       1.0     0.889298     0.163240     0.570777    Uiso  ? H
   N67        1.0     0.103643     0.141630     0.607238    Uiso  ? N
   C1106      1.0     0.130099     0.134895     0.604002    Uiso  ? C
   C1107      1.0     0.892823     0.139076     0.634195    Uiso  ? C
   C1108      1.0     0.139898     0.130829     0.630558    Uiso  ? C
   H784       1.0     0.141932     0.134550     0.584787    Uiso  ? H
   H785       1.0     0.872062     0.139201     0.643116    Uiso  ? H
   H786       1.0     0.161133     0.128862     0.637087    Uiso  ? H
   N68        1.0     0.119478     0.133254     0.649419    Uiso  ? N
   C1109      1.0     0.284997     0.866583     0.670952    Uiso  ? C
   C1110      1.0     0.272722     0.855444     0.694468    Uiso  ? C
   C1111      1.0     0.315433     0.844639     0.693641    Uiso  ? C
   N69        1.0     0.312485     0.861262     0.671069    Uiso  ? N
   H787       1.0     0.274603     0.879855     0.656961    Uiso  ? H
   H788       1.0     0.251177     0.857386     0.698244    Uiso  ? H
   H789       1.0     0.333699     0.833254     0.699130    Uiso  ? H
   N70        1.0     0.292430     0.842270     0.708887    Uiso  ? N
   C1112      1.0     0.290293     0.826943     0.734628    Uiso  ? C
   H790       1.0     0.270970     0.834816     0.745459    Uiso  ? H
   H791       1.0     0.285401     0.803961     0.729423    Uiso  ? H
   C1113      1.0     0.316138     0.831304     0.751526    Uiso  ? C
   C1114      1.0     0.335233     0.810556     0.754928    Uiso  ? C
   C1115      1.0     0.318524     0.854575     0.767777    Uiso  ? C
   C1116      1.0     0.359168     0.814710     0.771297    Uiso  ? C
   H792       1.0     0.334820     0.791633     0.743909    Uiso  ? H
   C1117      1.0     0.339818     0.857347     0.785698    Uiso  ? C
   H793       1.0     0.303085     0.870707     0.765990    Uiso  ? H
   C1118      1.0     0.361746     0.838128     0.787309    Uiso  ? C
   H794       1.0     0.374496     0.798919     0.772117    Uiso  ? H
   H795       1.0     0.339509     0.876431     0.797418    Uiso  ? H
   C1119      1.0     0.383551     0.843983     0.807742    Uiso  ? C
   C1120      1.0     0.394090     0.871036     0.811786    Uiso  ? C
   C1121      1.0     0.391448     0.824120     0.827540    Uiso  ? C
   C1122      1.0     0.410074     0.878216     0.834123    Uiso  ? C
   H796       1.0     0.390810     0.886138     0.797118    Uiso  ? H
   C1123      1.0     0.406801     0.830956     0.850935    Uiso  ? C
   H797       1.0     0.385094     0.802347     0.825471    Uiso  ? H
   C1124      1.0     0.414161     0.858559     0.855374    Uiso  ? C
   H798       1.0     0.419111     0.103611     0.835652    Uiso  ? H
   H799       1.0     0.411802     0.814603     0.866076    Uiso  ? H
   C1125      1.0     0.423477     0.868495     0.883772    Uiso  ? C
   H800       1.0     0.432632     0.851169     0.896016    Uiso  ? H
   H801       1.0     0.441212     0.883390     0.882568    Uiso  ? H
   N71        1.0     0.401038     0.880898     0.899620    Uiso  ? N
   C1126      1.0     0.401623     0.887949     0.125612    Uiso  ? C
   C1127      1.0     0.375735     0.883985     0.891545    Uiso  ? C
   C1128      1.0     0.376547     0.896838     0.132520    Uiso  ? C
   H802       1.0     0.418712     0.883441     0.137675    Uiso  ? H
   H803       1.0     0.368122     0.880685     0.870619    Uiso  ? H
   H804       1.0     0.369304     0.105168     0.153660    Uiso  ? H
   N72        1.0     0.360233     0.893904     0.110577    Uiso  ? N
   C1129      1.0     0.877560     0.862822     0.368522    Uiso  ? C
   C1130      1.0     0.891087     0.862762     0.392979    Uiso  ? C
   C1131      1.0     0.114585     0.892152     0.367349    Uiso  ? C
   N73        1.0     0.888890     0.882402     0.352740    Uiso  ? N
   H805       1.0     0.865835     0.846978     0.359584    Uiso  ? H
   H806       1.0     0.889055     0.846487     0.407813    Uiso  ? H
   H807       1.0     0.128754     0.112890     0.359995    Uiso  ? H
   N74        1.0     0.115223     0.881068     0.392582    Uiso  ? N
   C1132      1.0     0.138402     0.881607     0.410961    Uiso  ? C
   H808       1.0     0.144257     0.108045     0.414800    Uiso  ? H
   H809       1.0     0.134534     0.872861     0.431787    Uiso  ? H
   C1133      1.0     0.161092     0.866195     0.399147    Uiso  ? C
   C1134      1.0     0.160741     0.837699     0.399224    Uiso  ? C
   C1135      1.0     0.182041     0.880068     0.384186    Uiso  ? C
   C1136      1.0     0.179780     0.822104     0.385701    Uiso  ? C
   H810       1.0     0.143184     0.827252     0.409681    Uiso  ? H
   C1137      1.0     0.200632     0.864752     0.368193    Uiso  ? C
   H811       1.0     0.183613     0.107572     0.383753    Uiso  ? H
   C1138      1.0     0.200407     0.835973     0.369769    Uiso  ? C
   H812       1.0     0.178604     0.801272     0.384395    Uiso  ? H
   H813       1.0     0.217537     0.873385     0.355393    Uiso  ? H
   C1139      1.0     0.218391     0.820334     0.349639    Uiso  ? C
   C1140      1.0     0.219598     0.829075     0.322334    Uiso  ? C
   C1141      1.0     0.229472     0.795000     0.357080    Uiso  ? C
   C1142      1.0     0.237277     0.814920     0.304186    Uiso  ? C
   H814       1.0     0.208409     0.847211     0.316109    Uiso  ? H
   C1143      1.0     0.245428     0.780352     0.338779    Uiso  ? C
   H815       1.0     0.229384     0.788626     0.378245    Uiso  ? H
   C1144      1.0     0.251520     0.790641     0.312499    Uiso  ? C
   H816       1.0     0.241059     0.821481     0.283555    Uiso  ? H
   H817       1.0     0.254427     0.761015     0.344816    Uiso  ? H
   C1145      1.0     0.273203     0.777102     0.294887    Uiso  ? C
   H818       1.0     0.278543     0.756004     0.299748    Uiso  ? H
   H819       1.0     0.262764     0.774912     0.274617    Uiso  ? H
   N75        1.0     0.299753     0.791586     0.294488    Uiso  ? N
   C1146      1.0     0.319824     0.791496     0.274304    Uiso  ? C
   C1147      1.0     0.311872     0.803603     0.316060    Uiso  ? C
   C1148      1.0     0.342032     0.806160     0.283673    Uiso  ? C
   H820       1.0     0.317888     0.781552     0.254715    Uiso  ? H
   H821       1.0     0.302913     0.804649     0.336497    Uiso  ? H
   H822       1.0     0.361388     0.808027     0.274394    Uiso  ? H
   N76        1.0     0.337610     0.813203     0.309880    Uiso  ? N
   C1149      1.0     0.629622     0.105944     0.872618    Uiso  ? C
   C1150      1.0     0.602025     0.104706     0.881032    Uiso  ? C
   C1151      1.0     0.625127     0.127330     0.111056    Uiso  ? C
   N77        1.0     0.644149     0.118193     0.892554    Uiso  ? N
   H823       1.0     0.639118     0.888460     0.855507    Uiso  ? H
   H824       1.0     0.583663     0.890048     0.870367    Uiso  ? H
   H825       1.0     0.631482     0.137706     0.129361    Uiso  ? H
   N78        1.0     0.600459     0.118397     0.104962    Uiso  ? N
   C1152      1.0     0.578229     0.114838     0.125519    Uiso  ? C
   H826       1.0     0.565705     0.136151     0.126520    Uiso  ? H
   H827       1.0     0.563786     0.892635     0.119049    Uiso  ? H
   C1153      1.0     0.589794     0.110439     0.153527    Uiso  ? C
   C1154      1.0     0.595162     0.131218     0.171953    Uiso  ? C
   C1155      1.0     0.600063     0.879655     0.158524    Uiso  ? C
   C1156      1.0     0.615999     0.127954     0.191272    Uiso  ? C
   H828       1.0     0.586020     0.151547     0.170536    Uiso  ? H
   C1157      1.0     0.622483     0.876498     0.175676    Uiso  ? C
   H829       1.0     0.595173     0.861070     0.145372    Uiso  ? H
   C1158      1.0     0.632631     0.104366     0.191683    Uiso  ? C
   H830       1.0     0.621590     0.144089     0.204974    Uiso  ? H
   H831       1.0     0.635802     0.858105     0.173294    Uiso  ? H
   C1159      1.0     0.656350     0.896705     0.209373    Uiso  ? C
   C1160      1.0     0.674549     0.125249     0.213435    Uiso  ? C
   C1161      1.0     0.665803     0.871504     0.221273    Uiso  ? C
   C1162      1.0     0.697985     0.123737     0.230326    Uiso  ? C
   H832       1.0     0.667623     0.146178     0.205977    Uiso  ? H
   C1163      1.0     0.689088     0.871328     0.237548    Uiso  ? C
   H833       1.0     0.654185     0.853724     0.215893    Uiso  ? H
   C1164      1.0     0.702730     0.894844     0.243236    Uiso  ? C
   H834       1.0     0.707958     0.143159     0.236144    Uiso  ? H
   H835       1.0     0.695739     0.852506     0.247476    Uiso  ? H
   C1165      1.0     0.723783     0.895993     0.266022    Uiso  ? C
   H836       1.0     0.728970     0.873685     0.271777    Uiso  ? H
   H837       1.0     0.744603     0.111496     0.261745    Uiso  ? H
   N79        1.0     0.712576     0.115397     0.288870    Uiso  ? N
   C1166      1.0     0.717785     0.141597     0.295978    Uiso  ? C
   C1167      1.0     0.691116     0.108827     0.304552    Uiso  ? C
   C1168      1.0     0.698413     0.151250     0.313950    Uiso  ? C
   H838       1.0     0.732515     0.156312     0.286693    Uiso  ? H
   H839       1.0     0.680445     0.883241     0.304573    Uiso  ? H
   H840       1.0     0.697515     0.170471     0.324399    Uiso  ? H
   N80        1.0     0.681463     0.130250     0.318763    Uiso  ? N
   C1169      1.0     0.853888     0.530679     0.776173    Uiso  ? C
   C1170      1.0     0.859621     0.523646     0.802821    Uiso  ? C
   C1171      1.0     0.891191     0.507711     0.776535    Uiso  ? C
   N81        1.0     0.873559     0.519325     0.758907    Uiso  ? N
   H841       1.0     0.835321     0.540743     0.768983    Uiso  ? H
   H842       1.0     0.845455     0.526496     0.819908    Uiso  ? H
   H843       1.0     0.115706     0.499218     0.768961    Uiso  ? H
   N82        1.0     0.882078     0.507545     0.803398    Uiso  ? N
   C1172      1.0     0.895789     0.496540     0.827331    Uiso  ? C
   H844       1.0     0.111177     0.511910     0.839291    Uiso  ? H
   H845       1.0     0.877881     0.486701     0.841959    Uiso  ? H
   C1173      1.0     0.120865     0.475128     0.819575    Uiso  ? C
   C1174      1.0     0.113210     0.447617     0.817684    Uiso  ? C
   C1175      1.0     0.147851     0.483119     0.814632    Uiso  ? C
   C1176      1.0     0.133295     0.428030     0.811680    Uiso  ? C
   H846       1.0     0.887493     0.441062     0.822897    Uiso  ? H
   C1177      1.0     0.166567     0.463849     0.806824    Uiso  ? C
   H847       1.0     0.154771     0.504675     0.817396    Uiso  ? H
   C1178      1.0     0.159863     0.436189     0.805763    Uiso  ? C
   H848       1.0     0.125695     0.405771     0.807877    Uiso  ? H
   H849       1.0     0.187311     0.469526     0.803392    Uiso  ? H
   C1179      1.0     0.178375     0.415688     0.794211    Uiso  ? C
   C1180      1.0     0.171972     0.405043     0.768231    Uiso  ? C
   C1181      1.0     0.202341     0.407911     0.807137    Uiso  ? C
   C1182      1.0     0.189396     0.385975     0.756488    Uiso  ? C
   H850       1.0     0.154039     0.412775     0.756654    Uiso  ? H
   C1183      1.0     0.219481     0.388087     0.796850    Uiso  ? C
   H851       1.0     0.206792     0.415132     0.826620    Uiso  ? H
   C1184      1.0     0.213851     0.378718     0.769987    Uiso  ? C
   H852       1.0     0.184016     0.377336     0.736627    Uiso  ? H
   H853       1.0     0.237475     0.382764     0.807920    Uiso  ? H
   C1185      1.0     0.235433     0.360938     0.754636    Uiso  ? C
   H854       1.0     0.226775     0.356702     0.735202    Uiso  ? H
   H855       1.0     0.252491     0.374230     0.752853    Uiso  ? H
   N83        1.0     0.241437     0.335126     0.769981    Uiso  ? N
   C1186      1.0     0.266765     0.325914     0.776116    Uiso  ? C
   C1187      1.0     0.224694     0.318131     0.783355    Uiso  ? C
   C1188      1.0     0.264751     0.301235     0.789946    Uiso  ? C
   H856       1.0     0.285884     0.337808     0.773479    Uiso  ? H
   H857       1.0     0.203230     0.320126     0.783586    Uiso  ? H
   H858       1.0     0.281617     0.289467     0.797116    Uiso  ? H
   N84        1.0     0.238810     0.297555     0.795795    Uiso  ? N
   C1189      1.0     0.283435     0.702158     0.472325    Uiso  ? C
   C1190      1.0     0.297234     0.725429     0.482131    Uiso  ? C
   C1191      1.0     0.262496     0.719218     0.508348    Uiso  ? C
   N85        1.0     0.261061     0.699224     0.488677    Uiso  ? N
   H859       1.0     0.287801     0.690022     0.454136    Uiso  ? H
   H860       1.0     0.314366     0.734569     0.472668    Uiso  ? H
   H861       1.0     0.247720     0.722495     0.524233    Uiso  ? H
   N86        1.0     0.284320     0.735094     0.504321    Uiso  ? N
   C1192      1.0     0.293125     0.756221     0.524272    Uiso  ? C
   H862       1.0     0.316388     0.757911     0.523652    Uiso  ? H
   H863       1.0     0.282429     0.776867     0.519504    Uiso  ? H
   C1193      1.0     0.286605     0.748015     0.554117    Uiso  ? C
   C1194      1.0     0.275580     0.765649     0.573201    Uiso  ? C
   C1195      1.0     0.293325     0.720998     0.563303    Uiso  ? C
   C1196      1.0     0.270506     0.757697     0.600473    Uiso  ? C
   H864       1.0     0.270155     0.785919     0.564625    Uiso  ? H
   C1197      1.0     0.290024     0.713250     0.590570    Uiso  ? C
   H865       1.0     0.302621     0.706212     0.550439    Uiso  ? H
   C1198      1.0     0.278025     0.731568     0.608984    Uiso  ? C
   H866       1.0     0.259806     0.772032     0.614884    Uiso  ? H
   H867       1.0     0.298033     0.694001     0.596699    Uiso  ? H
   C1199      1.0     0.275382     0.724220     0.638187    Uiso  ? C
   C1200      1.0     0.270882     0.697116     0.646810    Uiso  ? C
   C1201      1.0     0.279974     0.744419     0.658817    Uiso  ? C
   C1202      1.0     0.273035     0.689479     0.674538    Uiso  ? C
   H868       1.0     0.270631     0.680158     0.632678    Uiso  ? H
   C1203      1.0     0.283424     0.735845     0.685890    Uiso  ? C
   H869       1.0     0.281192     0.766635     0.653236    Uiso  ? H
   C1204      1.0     0.280311     0.708340     0.693814    Uiso  ? C
   H870       1.0     0.273154     0.668512     0.680326    Uiso  ? H
   H871       1.0     0.288736     0.752085     0.700677    Uiso  ? H
   C1205      1.0     0.284696     0.699907     0.722658    Uiso  ? C
   H872       1.0     0.289003     0.677051     0.726197    Uiso  ? H
   H873       1.0     0.302639     0.712635     0.731461    Uiso  ? H
   N87        1.0     0.259495     0.705574     0.738800    Uiso  ? N
   C1206      1.0     0.236844     0.689658     0.740716    Uiso  ? C
   C1207      1.0     0.253755     0.727927     0.754264    Uiso  ? C
   C1208      1.0     0.217766     0.703343     0.756674    Uiso  ? C
   H874       1.0     0.231835     0.672118     0.728530    Uiso  ? H
   H875       1.0     0.267329     0.745038     0.752500    Uiso  ? H
   H876       1.0     0.197106     0.699553     0.758696    Uiso  ? H
   N88        1.0     0.228182     0.727444     0.764604    Uiso  ? N
   C1209      1.0     0.131135     0.468066     0.227484    Uiso  ? C
   C1210      1.0     0.121955     0.475346     0.201275    Uiso  ? C
   C1211      1.0     0.882697     0.474610     0.229189    Uiso  ? C
   N89        1.0     0.108759     0.467341     0.245256    Uiso  ? N
   H877       1.0     0.151561     0.465756     0.234308    Uiso  ? H
   H878       1.0     0.134509     0.476352     0.183581    Uiso  ? H
   H879       1.0     0.863768     0.479155     0.238679    Uiso  ? H
   N90        1.0     0.889529     0.480024     0.202905    Uiso  ? N
   C1212      1.0     0.870652     0.490978     0.181999    Uiso  ? C
   H880       1.0     0.881477     0.495600     0.162764    Uiso  ? H
   H881       1.0     0.856932     0.473081     0.178352    Uiso  ? H
   C1213      1.0     0.856991     0.514477     0.193865    Uiso  ? C
   C1214      1.0     0.869020     0.540089     0.193472    Uiso  ? C
   C1215      1.0     0.831096     0.511272     0.205618    Uiso  ? C
   C1216      1.0     0.855295     0.563276     0.204131    Uiso  ? C
   H882       1.0     0.887720     0.540754     0.182424    Uiso  ? H
   C1217      1.0     0.818545     0.534146     0.216796    Uiso  ? C
   H883       1.0     0.819625     0.493001     0.204538    Uiso  ? H
   C1218      1.0     0.829525     0.560386     0.214641    Uiso  ? C
   H884       1.0     0.863952     0.582624     0.202533    Uiso  ? H
   H885       1.0     0.797098     0.531722     0.226570    Uiso  ? H
   C1219      1.0     0.811269     0.584971     0.219844    Uiso  ? C
   C1220      1.0     0.822961     0.609898     0.229257    Uiso  ? C
   C1221      1.0     0.782432     0.583180     0.218491    Uiso  ? C
   C1222      1.0     0.806465     0.631077     0.239092    Uiso  ? C
   H886       1.0     0.844729     0.612006     0.231536    Uiso  ? H
   C1223      1.0     0.766224     0.605997     0.225988    Uiso  ? C
   H887       1.0     0.772110     0.565509     0.210175    Uiso  ? H
   C1224      1.0     0.777781     0.629458     0.236890    Uiso  ? C
   H888       1.0     0.817075     0.648364     0.248161    Uiso  ? H
   H889       1.0     0.743599     0.603740     0.224620    Uiso  ? H
   C1225      1.0     0.758578     0.652983     0.246067    Uiso  ? C
   H890       1.0     0.738564     0.642213     0.251773    Uiso  ? H
   H891       1.0     0.767553     0.662499     0.264548    Uiso  ? H
   N91        1.0     0.755074     0.674142     0.225519    Uiso  ? N
   C1226      1.0     0.731423     0.681696     0.212718    Uiso  ? C
   C1227      1.0     0.772962     0.693469     0.217968    Uiso  ? C
   C1228      1.0     0.736239     0.705882     0.198518    Uiso  ? C
   H892       1.0     0.712944     0.669738     0.216187    Uiso  ? H
   H893       1.0     0.793571     0.693377     0.226439    Uiso  ? H
   H894       1.0     0.723440     0.716039     0.184902    Uiso  ? H
   N92        1.0     0.762577     0.712379     0.201247    Uiso  ? N
   C1229      1.0     0.749115     0.264313     0.521097    Uiso  ? C
   C1230      1.0     0.728291     0.247691     0.512770    Uiso  ? C
   C1231      1.0     0.715551     0.288453     0.505521    Uiso  ? C
   N93        1.0     0.741367     0.290444     0.516611    Uiso  ? N
   H895       1.0     0.768730     0.256672     0.529650    Uiso  ? H
   H896       1.0     0.729215     0.223676     0.510380    Uiso  ? H
   H897       1.0     0.705090     0.305565     0.495133    Uiso  ? H
   N94        1.0     0.707993     0.262713     0.501226    Uiso  ? N
   C1232      1.0     0.688814     0.250976     0.481097    Uiso  ? C
   H898       1.0     0.686488     0.228357     0.484867    Uiso  ? H
   H899       1.0     0.668038     0.261286     0.482626    Uiso  ? H
   C1233      1.0     0.698770     0.256819     0.453247    Uiso  ? C
   C1234      1.0     0.714258     0.237984     0.437341    Uiso  ? C
   C1235      1.0     0.692069     0.281490     0.440582    Uiso  ? C
   C1236      1.0     0.724805     0.245225     0.411679    Uiso  ? C
   H900       1.0     0.720516     0.217821     0.444456    Uiso  ? H
   C1237      1.0     0.704215     0.290050     0.416027    Uiso  ? C
   H901       1.0     0.676808     0.295185     0.450710    Uiso  ? H
   C1238      1.0     0.720334     0.271524     0.401036    Uiso  ? C
   H902       1.0     0.738022     0.231048     0.401481    Uiso  ? H
   H903       1.0     0.697887     0.310397     0.407968    Uiso  ? H
   C1239      1.0     0.732108     0.278483     0.374240    Uiso  ? C
   C1240      1.0     0.715041     0.292910     0.355608    Uiso  ? C
   C1241      1.0     0.758975     0.276338     0.369669    Uiso  ? C
   C1242      1.0     0.728530     0.305395     0.332910    Uiso  ? C
   H904       1.0     0.692398     0.296134     0.358503    Uiso  ? H
   C1243      1.0     0.772349     0.287597     0.347093    Uiso  ? C
   H905       1.0     0.771319     0.262371     0.381935    Uiso  ? H
   C1244      1.0     0.757437     0.304195     0.329716    Uiso  ? C
   H906       1.0     0.717456     0.318058     0.318577    Uiso  ? H
   H907       1.0     0.794082     0.283784     0.344783    Uiso  ? H
   C1245      1.0     0.772026     0.319505     0.306691    Uiso  ? C
   H908       1.0     0.764039     0.341633     0.308616    Uiso  ? H
   H909       1.0     0.793467     0.320450     0.311384    Uiso  ? H
   N95        1.0     0.766708     0.307488     0.279683    Uiso  ? N
   C1246      1.0     0.743534     0.308809     0.264299    Uiso  ? C
   C1247      1.0     0.784862     0.292622     0.265718    Uiso  ? C
   C1248      1.0     0.748254     0.294705     0.240556    Uiso  ? C
   H910       1.0     0.724881     0.318513     0.268946    Uiso  ? H
   H911       1.0     0.805390     0.287938     0.273014    Uiso  ? H
   H912       1.0     0.734588     0.290929     0.224023    Uiso  ? H
   N96        1.0     0.774414     0.283855     0.242140    Uiso  ? N
