
#======================================================================
# CRYSTAL DATA
#----------------------------------------------------------------------
data_VESTA_phase_1

_chemical_name_common                  ' Atoms. Timestep: 0'
_cell_length_a                         63.937462
_cell_length_b                         63.937462
_cell_length_c                         63.937462
_cell_angle_alpha                      90.000000
_cell_angle_beta                       90.000000
_cell_angle_gamma                      90.000000
_cell_volume                           1.000000
_space_group_name_H-M_alt              'P 1'
_space_group_IT_number                 1

loop_
_space_group_symop_operation_xyz
   'x, y, z'

loop_
   _atom_site_label
   _atom_site_occupancy
   _atom_site_fract_x
   _atom_site_fract_y
   _atom_site_fract_z
   _atom_site_adp_type
   _atom_site_U_iso_or_equiv
   _atom_site_type_symbol
   C1         1.0     0.821306     0.231807     0.121799    Uiso  ? C
   C2         1.0     0.805066     0.233071     0.104594    Uiso  ? C
   C3         1.0     0.794195     0.250928     0.898985    Uiso  ? C
   H1         1.0     0.798339     0.266574     0.105125    Uiso  ? H
   C4         1.0     0.782375     0.250876     0.881061    Uiso  ? C
   H2         1.0     0.775070     0.266002     0.876765    Uiso  ? H
   C5         1.0     0.779372     0.232965     0.869095    Uiso  ? C
   H3         1.0     0.770431     0.235944     0.854531    Uiso  ? H
   C6         1.0     0.787319     0.213277     0.876195    Uiso  ? C
   C7         1.0     0.800800     0.213524     0.894340    Uiso  ? C
   H4         1.0     0.808365     0.198660     0.898940    Uiso  ? H
   C8         1.0     0.783076     0.194881     0.862379    Uiso  ? C
   C9         1.0     0.821127     0.211663     0.172302    Uiso  ? C
   C10        1.0     0.802611     0.200682     0.180897    Uiso  ? C
   C11        1.0     0.787939     0.211962     0.193017    Uiso  ? C
   H5         1.0     0.790932     0.227968     0.196405    Uiso  ? H
   C12        1.0     0.769048     0.202092     0.200217    Uiso  ? C
   H6         1.0     0.755781     0.210682     0.208027    Uiso  ? H
   C13        1.0     0.765720     0.180985     0.196842    Uiso  ? C
   H7         1.0     0.751570     0.172537     0.202302    Uiso  ? H
   C14        1.0     0.779096     0.170594     0.182718    Uiso  ? C
   C15        1.0     0.796777     0.180412     0.174907    Uiso  ? C
   H8         1.0     0.805065     0.173459     0.162666    Uiso  ? H
   C16        1.0     0.774824     0.148267     0.177749    Uiso  ? C
   C17        1.0     0.874076     0.226047     0.180204    Uiso  ? C
   C18        1.0     0.890118     0.223107     0.197835    Uiso  ? C
   C19        1.0     0.890600     0.237380     0.213786    Uiso  ? C
   H9         1.0     0.880026     0.251137     0.213632    Uiso  ? H
   C20        1.0     0.108694     0.234352     0.230170    Uiso  ? C
   H10        1.0     0.106828     0.244854     0.243322    Uiso  ? H
   C21        1.0     0.123840     0.218924     0.229121    Uiso  ? C
   H11        1.0     0.135250     0.218612     0.240710    Uiso  ? H
   C22        1.0     0.124963     0.205511     0.211620    Uiso  ? C
   C23        1.0     0.109059     0.207225     0.196146    Uiso  ? C
   H12        1.0     0.109543     0.197779     0.182442    Uiso  ? H
   C24        1.0     0.141960     0.189188     0.210445    Uiso  ? C
   C25        1.0     0.875380     0.247790     0.129475    Uiso  ? C
   C26        1.0     0.890694     0.259064     0.115308    Uiso  ? C
   C27        1.0     0.889965     0.280733     0.112273    Uiso  ? C
   H13        1.0     0.876592     0.289126     0.116897    Uiso  ? H
   C28        1.0     0.108994     0.292185     0.101157    Uiso  ? C
   H14        1.0     0.107686     0.307533     0.898133    Uiso  ? H
   C29        1.0     0.126571     0.279632     0.894815    Uiso  ? C
   H15        1.0     0.140119     0.287746     0.886553    Uiso  ? H
   C30        1.0     0.126911     0.257745     0.895976    Uiso  ? C
   C31        1.0     0.111609     0.248090     0.107486    Uiso  ? C
   H16        1.0     0.112514     0.230828     0.111299    Uiso  ? H
   C32        1.0     0.145085     0.245694     0.887507    Uiso  ? C
   C33        1.0     0.774588     0.131334     0.815555    Uiso  ? C
   C34        1.0     0.771599     0.113022     0.801264    Uiso  ? C
   C35        1.0     0.755656     0.111524     0.785990    Uiso  ? C
   H17        1.0     0.745006     0.125964     0.783397    Uiso  ? H
   C36        1.0     0.751531     0.888848     0.775896    Uiso  ? C
   H18        1.0     0.738945     0.888293     0.764762    Uiso  ? H
   C37        1.0     0.764101     0.871359     0.778689    Uiso  ? C
   H19        1.0     0.762559     0.857148     0.768210    Uiso  ? H
   C38        1.0     0.781562     0.872754     0.791198    Uiso  ? C
   C39        1.0     0.783655     0.891597     0.803331    Uiso  ? C
   H20        1.0     0.796409     0.892298     0.814186    Uiso  ? H
   C40        1.0     0.797903     0.856440     0.791187    Uiso  ? C
   C41        1.0     0.755111     0.149867     0.864176    Uiso  ? C
   C42        1.0     0.742058     0.141802     0.881806    Uiso  ? C
   C43        1.0     0.719750     0.140109     0.880085    Uiso  ? C
   H21        1.0     0.711440     0.145685     0.867465    Uiso  ? H
   C44        1.0     0.707762     0.134120     0.897759    Uiso  ? C
   H22        1.0     0.690655     0.133658     0.897953    Uiso  ? H
   C45        1.0     0.717646     0.129679     0.117278    Uiso  ? C
   H23        1.0     0.707202     0.124152     0.130172    Uiso  ? H
   C46        1.0     0.739041     0.129475     0.118076    Uiso  ? C
   C47        1.0     0.751206     0.137294     0.100000    Uiso  ? C
   H24        1.0     0.768183     0.138443     0.101858    Uiso  ? H
   C48        1.0     0.749465     0.121209     0.136302    Uiso  ? C
   C49        1.0     0.805320     0.177958     0.813104    Uiso  ? C
   C50        1.0     0.819244     0.186193     0.796382    Uiso  ? C
   C51        1.0     0.812061     0.201049     0.782474    Uiso  ? C
   H25        1.0     0.796899     0.209132     0.785533    Uiso  ? H
   C52        1.0     0.824421     0.207886     0.765988    Uiso  ? C
   H26        1.0     0.817979     0.219217     0.755510    Uiso  ? H
   C53        1.0     0.844253     0.199926     0.763135    Uiso  ? C
   H27        1.0     0.852827     0.205893     0.750201    Uiso  ? H
   C54        1.0     0.852067     0.185011     0.776005    Uiso  ? C
   C55        1.0     0.839267     0.178166     0.793607    Uiso  ? C
   H28        1.0     0.844766     0.164220     0.802558    Uiso  ? H
   C56        1.0     0.871899     0.174616     0.772602    Uiso  ? C
   C57        1.0     0.760620     0.869979     0.160103    Uiso  ? C
   C58        1.0     0.757191     0.847607     0.155626    Uiso  ? C
   C59        1.0     0.739474     0.837787     0.163505    Uiso  ? C
   H29        1.0     0.726881     0.845440     0.172491    Uiso  ? H
   C60        1.0     0.736197     0.816422     0.159793    Uiso  ? C
   H30        1.0     0.722142     0.809480     0.164650    Uiso  ? H
   C61        1.0     0.751781     0.804362     0.149932    Uiso  ? C
   H31        1.0     0.749442     0.787746     0.145959    Uiso  ? H
   C62        1.0     0.770184     0.813352     0.143188    Uiso  ? C
   C63        1.0     0.773168     0.834776     0.147029    Uiso  ? C
   H32        1.0     0.787336     0.842162     0.142798    Uiso  ? H
   C64        1.0     0.787099     0.801107     0.132683    Uiso  ? C
   C65        1.0     0.787169     0.893729     0.200707    Uiso  ? C
   C66        1.0     0.798346     0.885598     0.219296    Uiso  ? C
   C67        1.0     0.786282     0.881437     0.238285    Uiso  ? C
   H33        1.0     0.769388     0.886564     0.239064    Uiso  ? H
   C68        1.0     0.796178     0.870849     0.254319    Uiso  ? C
   H34        1.0     0.788237     0.870126     0.270080    Uiso  ? H
   C69        1.0     0.817073     0.864876     0.252833    Uiso  ? C
   H35        1.0     0.823339     0.855545     0.265716    Uiso  ? H
   C70        1.0     0.829252     0.870890     0.235601    Uiso  ? C
   C71        1.0     0.819254     0.880164     0.219003    Uiso  ? C
   H36        1.0     0.828391     0.882578     0.205440    Uiso  ? H
   C72        1.0     0.851163     0.863536     0.233835    Uiso  ? C
   C73        1.0     0.889871     0.125030     0.754362    Uiso  ? C
   C74        1.0     0.876419     0.108551     0.745227    Uiso  ? C
   C75        1.0     0.873654     0.107752     0.724034    Uiso  ? C
   H37        1.0     0.879900     0.119455     0.713898    Uiso  ? H
   C76        1.0     0.863534     0.886106     0.715374    Uiso  ? C
   H38        1.0     0.864542     0.884461     0.698558    Uiso  ? H
   C77        1.0     0.853934     0.871048     0.727929    Uiso  ? C
   H39        1.0     0.845154     0.857911     0.721471    Uiso  ? H
   C78        1.0     0.855511     0.871974     0.750704    Uiso  ? C
   C79        1.0     0.867530     0.888651     0.758897    Uiso  ? C
   H40        1.0     0.870612     0.888901     0.776459    Uiso  ? H
   C80        1.0     0.845679     0.856418     0.765087    Uiso  ? C
   C81        1.0     0.126332     0.189158     0.782054    Uiso  ? C
   C82        1.0     0.138202     0.207628     0.790521    Uiso  ? C
   C83        1.0     0.145329     0.223820     0.776188    Uiso  ? C
   H41        1.0     0.142139     0.223158     0.760281    Uiso  ? H
   C84        1.0     0.157661     0.239911     0.784176    Uiso  ? C
   H42        1.0     0.162737     0.251897     0.773936    Uiso  ? H
   C85        1.0     0.161673     0.241528     0.805728    Uiso  ? C
   H43        1.0     0.167582     0.255649     0.812208    Uiso  ? H
   C86        1.0     0.158006     0.224472     0.818630    Uiso  ? C
   C87        1.0     0.147044     0.207154     0.810681    Uiso  ? C
   H44        1.0     0.144570     0.193932     0.821329    Uiso  ? H
   C88        1.0     0.165312     0.224907     0.840453    Uiso  ? C
   C89        1.0     0.190939     0.226003     0.112294    Uiso  ? C
   C90        1.0     0.199413     0.224475     0.134164    Uiso  ? C
   C91        1.0     0.215970     0.236714     0.141094    Uiso  ? C
   H45        1.0     0.223259     0.247024     0.130938    Uiso  ? H
   C92        1.0     0.222641     0.235028     0.161682    Uiso  ? C
   H46        1.0     0.234790     0.245651     0.166170    Uiso  ? H
   C93        1.0     0.215289     0.219132     0.174696    Uiso  ? C
   H47        1.0     0.221498     0.217076     0.190502    Uiso  ? H
   C94        1.0     0.198533     0.206625     0.169039    Uiso  ? C
   C95        1.0     0.190013     0.209913     0.148270    Uiso  ? C
   H48        1.0     0.175060     0.203147     0.144546    Uiso  ? H
   C96        1.0     0.189773     0.190833     0.183431    Uiso  ? C
   O1         1.0     0.832698     0.215179     0.124372    Uiso  ? O
   O2         1.0     0.822649     0.247202     0.135517    Uiso  ? O
   O3         1.0     0.834346     0.201031     0.159486    Uiso  ? O
   O4         1.0     0.821828     0.232259     0.174341    Uiso  ? O
   O5         1.0     0.872667     0.212150     0.165775    Uiso  ? O
   O6         1.0     0.861310     0.242336     0.179530    Uiso  ? O
   O7         1.0     0.873310     0.227674     0.126570    Uiso  ? O
   O8         1.0     0.862422     0.258965     0.142245    Uiso  ? O
   O9         1.0     0.790438     0.131637     0.828333    Uiso  ? O
   O10        1.0     0.762037     0.146935     0.813667    Uiso  ? O
   O11        1.0     0.775328     0.146205     0.864472    Uiso  ? O
   O12        1.0     0.746678     0.161327     0.849504    Uiso  ? O
   O13        1.0     0.794850     0.178115     0.864398    Uiso  ? O
   O14        1.0     0.768829     0.195355     0.847031    Uiso  ? O
   O15        1.0     0.812472     0.168157     0.829231    Uiso  ? O
   O16        1.0     0.784773     0.181034     0.812099    Uiso  ? O
   O17        1.0     0.776168     0.880632     0.152890    Uiso  ? O
   O18        1.0     0.747447     0.879301     0.172727    Uiso  ? O
   O19        1.0     0.797557     0.895257     0.182742    Uiso  ? O
   O20        1.0     0.768171     0.102660     0.200876    Uiso  ? O
   O21        1.0     0.788580     0.138636     0.167622    Uiso  ? O
   O22        1.0     0.758055     0.138746     0.184753    Uiso  ? O
   O23        1.0     0.769727     0.119514     0.136924    Uiso  ? O
   O24        1.0     0.739426     0.118283     0.153884    Uiso  ? O
   O25        1.0     0.893004     0.127226     0.774529    Uiso  ? O
   O26        1.0     0.894765     0.140978     0.742071    Uiso  ? O
   O27        1.0     0.880055     0.162047     0.787582    Uiso  ? O
   O28        1.0     0.882784     0.178732     0.755528    Uiso  ? O
   O29        1.0     0.119848     0.175513     0.795360    Uiso  ? O
   O30        1.0     0.125387     0.186501     0.761795    Uiso  ? O
   O31        1.0     0.135518     0.139683     0.780388    Uiso  ? O
   O32        1.0     0.136657     0.152684     0.747787    Uiso  ? O
   O33        1.0     0.160905     0.209490     0.853334    Uiso  ? O
   O34        1.0     0.175898     0.241611     0.846823    Uiso  ? O
   O35        1.0     0.144213     0.225415     0.886465    Uiso  ? O
   O36        1.0     0.162301     0.256022     0.882384    Uiso  ? O
   O37        1.0     0.178744     0.211397     0.105155    Uiso  ? O
   O38        1.0     0.195532     0.242024     0.100396    Uiso  ? O
   O39        1.0     0.190140     0.195036     0.869150    Uiso  ? O
   O40        1.0     0.209463     0.224251     0.866153    Uiso  ? O
   O41        1.0     0.854260     0.819316     0.799849    Uiso  ? O
   O42        1.0     0.839245     0.805512     0.771071    Uiso  ? O
   O43        1.0     0.818382     0.822081     0.819040    Uiso  ? O
   O44        1.0     0.805415     0.804806     0.790668    Uiso  ? O
   O45        1.0     0.813498     0.857613     0.805056    Uiso  ? O
   O46        1.0     0.796963     0.841874     0.776764    Uiso  ? O
   O47        1.0     0.847354     0.857495     0.785426    Uiso  ? O
   O48        1.0     0.833233     0.841905     0.757132    Uiso  ? O
   O49        1.0     0.864219     0.186807     0.132329    Uiso  ? O
   O50        1.0     0.816610     0.139997     0.862639    Uiso  ? O
   O51        1.0     0.809707     0.110119     0.142043    Uiso  ? O
   O52        1.0     0.107701     0.138105     0.813747    Uiso  ? O
   O53        1.0     0.152541     0.184210     0.886230    Uiso  ? O
   O54        1.0     0.847303     0.850629     0.827579    Uiso  ? O
   Zn1        1.0     0.854699     0.211753     0.142294    Uiso  ? Zn
   Zn2        1.0     0.840625     0.248022     0.159476    Uiso  ? Zn
   Zn3        1.0     0.796059     0.154018     0.847352    Uiso  ? Zn
   Zn4        1.0     0.763579     0.172905     0.828590    Uiso  ? Zn
   Zn5        1.0     0.786287     0.110564     0.158371    Uiso  ? Zn
   Zn6        1.0     0.750981     0.111883     0.179958    Uiso  ? Zn
   Zn7        1.0     0.109663     0.149509     0.787758    Uiso  ? Zn
   Zn8        1.0     0.111721     0.166655     0.748870    Uiso  ? Zn
   Zn9        1.0     0.166952     0.207681     0.879826    Uiso  ? Zn
   Zn10       1.0     0.188027     0.244764     0.873027    Uiso  ? Zn
   Zn11       1.0     0.835050     0.840155     0.804374    Uiso  ? Zn
   Zn12       1.0     0.816138     0.822439     0.770947    Uiso  ? Zn
   C97        1.0     0.169407     0.767909     0.875950    Uiso  ? C
   C98        1.0     0.185914     0.766968     0.892909    Uiso  ? C
   C99        1.0     0.198382     0.748459     0.895344    Uiso  ? C
   H49        1.0     0.194230     0.734305     0.885850    Uiso  ? H
   C100       1.0     0.212611     0.748376     0.111753    Uiso  ? C
   H50        1.0     0.219141     0.733390     0.115520    Uiso  ? H
   C101       1.0     0.216504     0.765471     0.124097    Uiso  ? C
   H51        1.0     0.228544     0.762595     0.135293    Uiso  ? H
   C102       1.0     0.204505     0.784397     0.122053    Uiso  ? C
   C103       1.0     0.189043     0.785021     0.105965    Uiso  ? C
   H52        1.0     0.180876     0.799270     0.102733    Uiso  ? H
   C104       1.0     0.209050     0.802739     0.135693    Uiso  ? C
   C105       1.0     0.173426     0.791099     0.828843    Uiso  ? C
   C106       1.0     0.190906     0.802290     0.819756    Uiso  ? C
   C107       1.0     0.203412     0.791848     0.804794    Uiso  ? C
   H53        1.0     0.201072     0.774927     0.801285    Uiso  ? H
   C108       1.0     0.219830     0.801713     0.793632    Uiso  ? C
   H54        1.0     0.228392     0.793259     0.782199    Uiso  ? H
   C109       1.0     0.224660     0.822319     0.799679    Uiso  ? C
   H55        1.0     0.236067     0.830871     0.791183    Uiso  ? H
   C110       1.0     0.213264     0.833797     0.815250    Uiso  ? C
   C111       1.0     0.195767     0.823725     0.825236    Uiso  ? C
   H56        1.0     0.186314     0.831301     0.838025    Uiso  ? H
   C112       1.0     0.218501     0.856164     0.818381    Uiso  ? C
   C113       1.0     0.120638     0.771159     0.817928    Uiso  ? C
   C114       1.0     0.105687     0.773782     0.799679    Uiso  ? C
   C115       1.0     0.109153     0.761928     0.781123    Uiso  ? C
   H57        1.0     0.123806     0.752008     0.779157    Uiso  ? H
   C116       1.0     0.891409     0.763261     0.764414    Uiso  ? C
   H58        1.0     0.893065     0.752710     0.751314    Uiso  ? H
   C117       1.0     0.875349     0.779145     0.765049    Uiso  ? C
   H59        1.0     0.865277     0.782078     0.751485    Uiso  ? H
   C118       1.0     0.871378     0.790131     0.783724    Uiso  ? C
   C119       1.0     0.883998     0.786886     0.800526    Uiso  ? C
   H60        1.0     0.879952     0.793342     0.815805    Uiso  ? H
   C120       1.0     0.854025     0.805656     0.785175    Uiso  ? C
   C121       1.0     0.118799     0.753247     0.867916    Uiso  ? C
   C122       1.0     0.897144     0.743509     0.879802    Uiso  ? C
   C123       1.0     0.895558     0.722176     0.878695    Uiso  ? C
   H61        1.0     0.112709     0.713755     0.871607    Uiso  ? H
   C124       1.0     0.878860     0.712477     0.887034    Uiso  ? C
   H62        1.0     0.877606     0.694320     0.885600    Uiso  ? H
   C125       1.0     0.863253     0.723505     0.897089    Uiso  ? C
   H63        1.0     0.849280     0.716806     0.102694    Uiso  ? H
   C126       1.0     0.865205     0.745439     0.899024    Uiso  ? C
   C127       1.0     0.882971     0.755438     0.890441    Uiso  ? C
   H64        1.0     0.884442     0.772090     0.891537    Uiso  ? H
   C128       1.0     0.848704     0.758408     0.108658    Uiso  ? C
   C129       1.0     0.225214     0.867306     0.174148    Uiso  ? C
   C130       1.0     0.228672     0.885951     0.187473    Uiso  ? C
   C131       1.0     0.246821     0.888555     0.200242    Uiso  ? C
   H65        1.0     0.258090     0.875314     0.200876    Uiso  ? H
   C132       1.0     0.252063     0.111070     0.210620    Uiso  ? C
   H66        1.0     0.266909     0.113652     0.219616    Uiso  ? H
   C133       1.0     0.235999     0.126180     0.211828    Uiso  ? C
   H67        1.0     0.239443     0.139821     0.221640    Uiso  ? H
   C134       1.0     0.216883     0.123940     0.201376    Uiso  ? C
   C135       1.0     0.215109     0.107053     0.186752    Uiso  ? C
   H68        1.0     0.202550     0.105625     0.176982    Uiso  ? H
   C136       1.0     0.200425     0.139834     0.203573    Uiso  ? C
   C137       1.0     0.240064     0.846405     0.125594    Uiso  ? C
   C138       1.0     0.253210     0.853845     0.107761    Uiso  ? C
   C139       1.0     0.274847     0.851837     0.109259    Uiso  ? C
   H69        1.0     0.282482     0.844931     0.122359    Uiso  ? H
   C140       1.0     0.286966     0.859493     0.894348    Uiso  ? C
   H70        1.0     0.303420     0.858065     0.895456    Uiso  ? H
   C141       1.0     0.277793     0.870286     0.877750    Uiso  ? C
   H71        1.0     0.288358     0.876423     0.866170    Uiso  ? H
   C142       1.0     0.255787     0.870854     0.875340    Uiso  ? C
   C143       1.0     0.243835     0.863027     0.891745    Uiso  ? C
   H72        1.0     0.226868     0.862608     0.890652    Uiso  ? H
   C144       1.0     0.244836     0.881528     0.858256    Uiso  ? C
   C145       1.0     0.194029     0.824361     0.182407    Uiso  ? C
   C146       1.0     0.180683     0.819245     0.200825    Uiso  ? C
   C147       1.0     0.188615     0.807456     0.217288    Uiso  ? C
   H73        1.0     0.205087     0.803120     0.218021    Uiso  ? H
   C148       1.0     0.175847     0.803178     0.234988    Uiso  ? C
   H74        1.0     0.182901     0.793225     0.247048    Uiso  ? H
   C149       1.0     0.154910     0.809365     0.235754    Uiso  ? C
   H75        1.0     0.145441     0.807251     0.249899    Uiso  ? H
   C150       1.0     0.146624     0.821393     0.219760    Uiso  ? C
   C151       1.0     0.159723     0.827816     0.203074    Uiso  ? C
   H76        1.0     0.153343     0.836598     0.189715    Uiso  ? H
   C152       1.0     0.125024     0.830802     0.222942    Uiso  ? C
   C153       1.0     0.235641     0.135850     0.836712    Uiso  ? C
   C154       1.0     0.237545     0.158453     0.841709    Uiso  ? C
   C155       1.0     0.254081     0.169152     0.833239    Uiso  ? C
   H77        1.0     0.262727     0.161119     0.821206    Uiso  ? H
   C156       1.0     0.257425     0.190851     0.837082    Uiso  ? C
   H78        1.0     0.269531     0.198471     0.829268    Uiso  ? H
   C157       1.0     0.243558     0.202024     0.849371    Uiso  ? C
   H79        1.0     0.245760     0.219262     0.851625    Uiso  ? H
   C158       1.0     0.224704     0.191475     0.856127    Uiso  ? C
   C159       1.0     0.222768     0.169081     0.852892    Uiso  ? C
   H80        1.0     0.208646     0.161540     0.858209    Uiso  ? H
   C160       1.0     0.207529     0.204249     0.863413    Uiso  ? C
   C161       1.0     0.208586     0.110673     0.794200    Uiso  ? C
   C162       1.0     0.198629     0.118271     0.775438    Uiso  ? C
   C163       1.0     0.207037     0.116396     0.755360    Uiso  ? C
   H81        1.0     0.223887     0.113507     0.753360    Uiso  ? H
   C164       1.0     0.194677     0.121850     0.737451    Uiso  ? C
   H82        1.0     0.203443     0.119491     0.723340    Uiso  ? H
   C165       1.0     0.173878     0.128683     0.738780    Uiso  ? C
   H83        1.0     0.164905     0.132916     0.725328    Uiso  ? H
   C166       1.0     0.166111     0.133075     0.760038    Uiso  ? C
   C167       1.0     0.177534     0.127126     0.777252    Uiso  ? C
   H84        1.0     0.170372     0.130865     0.792465    Uiso  ? H
   C168       1.0     0.145541     0.142100     0.762639    Uiso  ? C
   C169       1.0     0.109548     0.875751     0.244128    Uiso  ? C
   C170       1.0     0.122358     0.893155     0.254601    Uiso  ? C
   C171       1.0     0.127559     0.893213     0.275778    Uiso  ? C
   H85        1.0     0.121548     0.881921     0.285729    Uiso  ? H
   C172       1.0     0.142976     0.112028     0.284104    Uiso  ? C
   H86        1.0     0.147751     0.109453     0.300064    Uiso  ? H
   C173       1.0     0.151620     0.127263     0.270630    Uiso  ? C
   H87        1.0     0.164471     0.136087     0.276861    Uiso  ? H
   C174       1.0     0.145717     0.127932     0.249331    Uiso  ? C
   C175       1.0     0.132490     0.112720     0.241852    Uiso  ? C
   H88        1.0     0.131725     0.110577     0.225170    Uiso  ? H
   C176       1.0     0.155317     0.142714     0.234583    Uiso  ? C
   C177       1.0     0.869537     0.813943     0.213836    Uiso  ? C
   C178       1.0     0.860910     0.794468     0.204469    Uiso  ? C
   C179       1.0     0.857369     0.777129     0.216890    Uiso  ? C
   H89        1.0     0.859981     0.778818     0.233525    Uiso  ? H
   C180       1.0     0.848542     0.759021     0.208738    Uiso  ? C
   H90        1.0     0.846566     0.745422     0.219932    Uiso  ? H
   C181       1.0     0.839361     0.759435     0.189122    Uiso  ? C
   H91        1.0     0.830513     0.747345     0.183780    Uiso  ? H
   C182       1.0     0.841735     0.777979     0.177046    Uiso  ? C
   C183       1.0     0.852879     0.795100     0.184309    Uiso  ? C
   H92        1.0     0.857100     0.807984     0.174072    Uiso  ? H
   C184       1.0     0.832576     0.779266     0.155950    Uiso  ? C
   C185       1.0     0.803329     0.777892     0.883828    Uiso  ? C
   C186       1.0     0.797662     0.775412     0.861211    Uiso  ? C
   C187       1.0     0.784756     0.758957     0.853293    Uiso  ? C
   H93        1.0     0.782111     0.746537     0.863062    Uiso  ? H
   C188       1.0     0.779935     0.758649     0.832228    Uiso  ? C
   H94        1.0     0.770847     0.746243     0.825258    Uiso  ? H
   C189       1.0     0.786723     0.774993     0.819135    Uiso  ? C
   H95        1.0     0.784207     0.773398     0.801512    Uiso  ? H
   C190       1.0     0.798635     0.791586     0.826328    Uiso  ? C
   C191       1.0     0.804578     0.791304     0.847743    Uiso  ? C
   H96        1.0     0.814821     0.803685     0.853392    Uiso  ? H
   C192       1.0     0.807969     0.806303     0.810958    Uiso  ? C
   O55        1.0     0.160406     0.785927     0.870806    Uiso  ? O
   O56        1.0     0.166224     0.751467     0.864726    Uiso  ? O
   O57        1.0     0.157730     0.801326     0.836621    Uiso  ? O
   O58        1.0     0.172722     0.770664     0.827951    Uiso  ? O
   O59        1.0     0.122178     0.785846     0.831960    Uiso  ? O
   O60        1.0     0.134309     0.756299     0.817612    Uiso  ? O
   O61        1.0     0.121163     0.773463     0.869775    Uiso  ? O
   O62        1.0     0.130368     0.742467     0.854864    Uiso  ? O
   O63        1.0     0.210517     0.866978     0.159829    Uiso  ? O
   O64        1.0     0.236425     0.850442     0.177104    Uiso  ? O
   O65        1.0     0.220498     0.851123     0.126453    Uiso  ? O
   O66        1.0     0.248959     0.835538     0.140239    Uiso  ? O
   O67        1.0     0.196558     0.819291     0.133818    Uiso  ? O
   O68        1.0     0.225458     0.802549     0.147879    Uiso  ? O
   O69        1.0     0.187303     0.837319     0.168605    Uiso  ? O
   O70        1.0     0.213425     0.817728     0.182461    Uiso  ? O
   O71        1.0     0.218607     0.125913     0.842960    Uiso  ? O
   O72        1.0     0.249315     0.125458     0.825635    Uiso  ? O
   O73        1.0     0.198517     0.108709     0.812236    Uiso  ? O
   O74        1.0     0.228905     0.106175     0.794179    Uiso  ? O
   O75        1.0     0.207046     0.866920     0.831227    Uiso  ? O
   O76        1.0     0.235366     0.865220     0.810237    Uiso  ? O
   O77        1.0     0.225279     0.888849     0.859168    Uiso  ? O
   O78        1.0     0.254355     0.882437     0.839790    Uiso  ? O
   O79        1.0     0.105453     0.876662     0.223878    Uiso  ? O
   O80        1.0     0.103228     0.859882     0.256221    Uiso  ? O
   O81        1.0     0.118478     0.844093     0.208668    Uiso  ? O
   O82        1.0     0.113939     0.825800     0.238823    Uiso  ? O
   O83        1.0     0.877934     0.828328     0.201742    Uiso  ? O
   O84        1.0     0.872143     0.814832     0.233880    Uiso  ? O
   O85        1.0     0.862113     0.867062     0.217328    Uiso  ? O
   O86        1.0     0.859014     0.851142     0.248750    Uiso  ? O
   O87        1.0     0.836206     0.794657     0.143632    Uiso  ? O
   O88        1.0     0.820058     0.763909     0.150004    Uiso  ? O
   O89        1.0     0.849971     0.779047     0.107787    Uiso  ? O
   O90        1.0     0.831741     0.749717     0.115152    Uiso  ? O
   O91        1.0     0.815331     0.792296     0.890844    Uiso  ? O
   O92        1.0     0.799383     0.762069     0.896501    Uiso  ? O
   O93        1.0     0.804284     0.810976     0.126208    Uiso  ? O
   O94        1.0     0.786554     0.779962     0.131316    Uiso  ? O
   O95        1.0     0.141814     0.176417     0.194985    Uiso  ? O
   O96        1.0     0.157902     0.189539     0.223400    Uiso  ? O
   O97        1.0     0.176941     0.175989     0.176766    Uiso  ? O
   O98        1.0     0.193639     0.192164     0.203667    Uiso  ? O
   O99        1.0     0.184716     0.139119     0.190582    Uiso  ? O
   O100       1.0     0.201368     0.154739     0.217469    Uiso  ? O
   O101       1.0     0.151794     0.140822     0.214191    Uiso  ? O
   O102       1.0     0.169268     0.156313     0.240898    Uiso  ? O
   O103       1.0     0.126761     0.815841     0.862604    Uiso  ? O
   O104       1.0     0.176888     0.858612     0.133296    Uiso  ? O
   O105       1.0     0.184288     0.895931     0.850508    Uiso  ? O
   O106       1.0     0.887035     0.867708     0.183745    Uiso  ? O
   O107       1.0     0.842606     0.820836     0.110777    Uiso  ? O
   O108       1.0     0.148480     0.142227     0.170383    Uiso  ? O
   Zn13       1.0     0.138195     0.789713     0.853370    Uiso  ? Zn
   Zn14       1.0     0.152826     0.752511     0.839065    Uiso  ? Zn
   Zn15       1.0     0.200302     0.846122     0.145148    Uiso  ? Zn
   Zn16       1.0     0.232924     0.826143     0.163449    Uiso  ? Zn
   Zn17       1.0     0.208948     0.894974     0.836708    Uiso  ? Zn
   Zn18       1.0     0.244065     0.892484     0.815507    Uiso  ? Zn
   Zn19       1.0     0.888257     0.855112     0.209717    Uiso  ? Zn
   Zn20       1.0     0.883984     0.836808     0.247614    Uiso  ? Zn
   Zn21       1.0     0.827785     0.797263     0.115857    Uiso  ? Zn
   Zn22       1.0     0.808316     0.762831     0.124442    Uiso  ? Zn
   Zn23       1.0     0.162353     0.156551     0.192114    Uiso  ? Zn
   Zn24       1.0     0.181741     0.174546     0.223539    Uiso  ? Zn
   H97        1.0     0.164943     0.855226     0.141039    Uiso  ? H
   H98        1.0     0.175180     0.854153     0.118040    Uiso  ? H
   H99        1.0     0.814125     0.124656     0.863130    Uiso  ? H
   H100       1.0     0.830189     0.141614     0.855743    Uiso  ? H
   H101       1.0     0.840668     0.861139     0.835647    Uiso  ? H
   H102       1.0     0.860632     0.856863     0.823569    Uiso  ? H
   H103       1.0     0.897679     0.146943     0.825044    Uiso  ? H
   H104       1.0     0.122366     0.135468     0.818348    Uiso  ? H
   H105       1.0     0.134750     0.140143     0.176357    Uiso  ? H
   H106       1.0     0.146634     0.152640     0.158572    Uiso  ? H
   H107       1.0     0.857123     0.184481     0.119157    Uiso  ? H
   H108       1.0     0.879954     0.189905     0.128861    Uiso  ? H
   H109       1.0     0.147248     0.186609     0.100602    Uiso  ? H
   H110       1.0     0.139614     0.184265     0.877872    Uiso  ? H
   H111       1.0     0.886205     0.855920     0.174527    Uiso  ? H
   H112       1.0     0.104817     0.873894     0.181520    Uiso  ? H
   H113       1.0     0.807354     0.895673     0.130221    Uiso  ? H
   H114       1.0     0.822737     0.104400     0.149077    Uiso  ? H
   H115       1.0     0.857988     0.818277     0.114370    Uiso  ? H
   H116       1.0     0.843028     0.823367     0.895743    Uiso  ? H
   H117       1.0     0.175041     0.108361     0.842281    Uiso  ? H
   H118       1.0     0.178911     0.881932     0.852402    Uiso  ? H
   H119       1.0     0.128011     0.816799     0.877684    Uiso  ? H
   H120       1.0     0.112026     0.815922     0.860256    Uiso  ? H
   C193       1.0     0.828588     0.387319     0.434031    Uiso  ? C
   C194       1.0     0.812686     0.380496     0.451144    Uiso  ? C
   C195       1.0     0.801272     0.361701     0.448431    Uiso  ? C
   H121       1.0     0.803732     0.350225     0.436349    Uiso  ? H
   C196       1.0     0.783084     0.358503     0.460630    Uiso  ? C
   H122       1.0     0.773484     0.344868     0.457260    Uiso  ? H
   C197       1.0     0.778669     0.372074     0.477071    Uiso  ? C
   H123       1.0     0.766064     0.369828     0.487638    Uiso  ? H
   C198       1.0     0.791387     0.388787     0.481865    Uiso  ? C
   C199       1.0     0.808071     0.392874     0.469301    Uiso  ? C
   H124       1.0     0.818767     0.405438     0.472499    Uiso  ? H
   C200       1.0     0.787241     0.403558     0.498736    Uiso  ? C
   C201       1.0     0.830303     0.419932     0.390166    Uiso  ? C
   C202       1.0     0.814845     0.434729     0.380563    Uiso  ? C
   C203       1.0     0.804570     0.430014     0.362293    Uiso  ? C
   H125       1.0     0.808892     0.417292     0.351766    Uiso  ? H
   C204       1.0     0.788176     0.443036     0.354836    Uiso  ? C
   H126       1.0     0.781360     0.440527     0.339850    Uiso  ? H
   C205       1.0     0.781257     0.459700     0.366868    Uiso  ? C
   H127       1.0     0.769342     0.468806     0.362547    Uiso  ? H
   C206       1.0     0.793400     0.466118     0.384856    Uiso  ? C
   C207       1.0     0.810626     0.453895     0.391147    Uiso  ? C
   H128       1.0     0.820111     0.457481     0.405007    Uiso  ? H
   C208       1.0     0.787690     0.485621     0.396108    Uiso  ? C
   C209       1.0     0.882461     0.402513     0.380225    Uiso  ? C
   C210       1.0     0.103842     0.408857     0.366488    Uiso  ? C
   C211       1.0     0.104627     0.400771     0.346716    Uiso  ? C
   H129       1.0     0.890073     0.389210     0.341851    Uiso  ? H
   C212       1.0     0.121104     0.406989     0.333562    Uiso  ? C
   H130       1.0     0.123117     0.397311     0.319761    Uiso  ? H
   C213       1.0     0.136512     0.421003     0.339667    Uiso  ? C
   H131       1.0     0.149021     0.425059     0.328922    Uiso  ? H
   C214       1.0     0.135957     0.429081     0.360049    Uiso  ? C
   C215       1.0     0.120159     0.421494     0.373396    Uiso  ? C
   H132       1.0     0.120658     0.424971     0.389579    Uiso  ? H
   C216       1.0     0.152038     0.443796     0.368420    Uiso  ? C
   C217       1.0     0.882637     0.372512     0.423860    Uiso  ? C
   C218       1.0     0.104362     0.359208     0.432570    Uiso  ? C
   C219       1.0     0.105729     0.337378     0.427651    Uiso  ? C
   H133       1.0     0.890109     0.330360     0.417940    Uiso  ? H
   C220       1.0     0.122095     0.325913     0.435562    Uiso  ? C
   H134       1.0     0.122539     0.309022     0.431872    Uiso  ? H
   C221       1.0     0.135173     0.334367     0.450825    Uiso  ? C
   H135       1.0     0.146810     0.324614     0.456614    Uiso  ? H
   C222       1.0     0.133700     0.354950     0.457149    Uiso  ? C
   C223       1.0     0.118465     0.367994     0.447233    Uiso  ? C
   H136       1.0     0.117991     0.384550     0.449724    Uiso  ? H
   C224       1.0     0.148800     0.364323     0.472052    Uiso  ? C
   C225       1.0     0.767074     0.452612     0.554728    Uiso  ? C
   C226       1.0     0.760049     0.466812     0.571693    Uiso  ? C
   C227       1.0     0.740128     0.464162     0.581534    Uiso  ? C
   H137       1.0     0.728268     0.452733     0.576784    Uiso  ? H
   C228       1.0     0.733388     0.478100     0.596849    Uiso  ? C
   H138       1.0     0.717579     0.475228     0.603191    Uiso  ? H
   C229       1.0     0.746897     0.496053     0.601377    Uiso  ? C
   H139       1.0     0.742760     0.506310     0.613833    Uiso  ? H
   C230       1.0     0.766422     0.497459     0.592277    Uiso  ? C
   C231       1.0     0.773259     0.483190     0.578139    Uiso  ? C
   H140       1.0     0.788827     0.483203     0.571757    Uiso  ? H
   C232       1.0     0.780913     0.515201     0.598676    Uiso  ? C
   C233       1.0     0.759501     0.448597     0.500793    Uiso  ? C
   C234       1.0     0.747809     0.460919     0.484979    Uiso  ? C
   C235       1.0     0.725944     0.457758     0.482347    Uiso  ? C
   H141       1.0     0.718109     0.447169     0.493098    Uiso  ? H
   C236       1.0     0.714445     0.469418     0.467581    Uiso  ? C
   H142       1.0     0.697456     0.465778     0.467537    Uiso  ? H
   C237       1.0     0.725127     0.482871     0.453634    Uiso  ? C
   H143       1.0     0.717132     0.489897     0.440539    Uiso  ? H
   C238       1.0     0.746537     0.485003     0.455528    Uiso  ? C
   C239       1.0     0.758064     0.475004     0.470917    Uiso  ? C
   H144       1.0     0.774821     0.478192     0.473191    Uiso  ? H
   C240       1.0     0.758360     0.498154     0.439444    Uiso  ? C
   C241       1.0     0.797221     0.405064     0.550731    Uiso  ? C
   C242       1.0     0.809752     0.393384     0.566685    Uiso  ? C
   C243       1.0     0.803792     0.373740     0.574086    Uiso  ? C
   H145       1.0     0.790142     0.367825     0.566806    Uiso  ? H
   C244       1.0     0.815029     0.363789     0.589336    Uiso  ? C
   H146       1.0     0.811207     0.348431     0.595318    Uiso  ? H
   C245       1.0     0.832132     0.372617     0.598748    Uiso  ? C
   H147       1.0     0.841751     0.365741     0.610340    Uiso  ? H
   C246       1.0     0.838795     0.393029     0.591167    Uiso  ? C
   C247       1.0     0.827587     0.402532     0.575126    Uiso  ? C
   H148       1.0     0.832395     0.418652     0.569394    Uiso  ? H
   C248       1.0     0.858595     0.401806     0.598676    Uiso  ? C
   C249       1.0     0.770745     0.551069     0.432404    Uiso  ? C
   C250       1.0     0.765717     0.570831     0.444632    Uiso  ? C
   C251       1.0     0.746243     0.581313     0.441197    Uiso  ? C
   H149       1.0     0.735164     0.572756     0.432903    Uiso  ? H
   C252       1.0     0.741365     0.600292     0.449626    Uiso  ? C
   H150       1.0     0.725775     0.606774     0.447644    Uiso  ? H
   C253       1.0     0.757320     0.610165     0.461199    Uiso  ? C
   H151       1.0     0.752556     0.625257     0.468691    Uiso  ? H
   C254       1.0     0.776390     0.600266     0.465924    Uiso  ? C
   C255       1.0     0.780409     0.580659     0.457929    Uiso  ? C
   H152       1.0     0.795261     0.572568     0.459626    Uiso  ? H
   C256       1.0     0.792018     0.610631     0.479295    Uiso  ? C
   C257       1.0     0.797412     0.539932     0.387310    Uiso  ? C
   C258       1.0     0.808423     0.554063     0.372979    Uiso  ? C
   C259       1.0     0.799159     0.561587     0.354875    Uiso  ? C
   H153       1.0     0.782591     0.557817     0.351362    Uiso  ? H
   C260       1.0     0.811626     0.574003     0.342300    Uiso  ? C
   H154       1.0     0.804815     0.580670     0.327875    Uiso  ? H
   C261       1.0     0.831747     0.581487     0.348320    Uiso  ? C
   H155       1.0     0.839067     0.591698     0.337768    Uiso  ? H
   C262       1.0     0.840775     0.573674     0.366433    Uiso  ? C
   C263       1.0     0.829490     0.559265     0.378555    Uiso  ? C
   H156       1.0     0.836968     0.553073     0.391941    Uiso  ? H
   C264       1.0     0.861737     0.581130     0.373523    Uiso  ? C
   C265       1.0     0.870593     0.444847     0.632095    Uiso  ? C
   C266       1.0     0.859060     0.460465     0.645118    Uiso  ? C
   C267       1.0     0.854849     0.457930     0.665959    Uiso  ? C
   H157       1.0     0.862659     0.445901     0.674294    Uiso  ? H
   C268       1.0     0.841930     0.472605     0.676929    Uiso  ? C
   H158       1.0     0.838831     0.471504     0.692336    Uiso  ? H
   C269       1.0     0.831939     0.489332     0.666622    Uiso  ? C
   H159       1.0     0.821223     0.498667     0.674536    Uiso  ? H
   C270       1.0     0.835676     0.491470     0.644935    Uiso  ? C
   C271       1.0     0.849863     0.477133     0.634179    Uiso  ? C
   H160       1.0     0.853027     0.480233     0.617679    Uiso  ? H
   C272       1.0     0.825503     0.508686     0.633932    Uiso  ? C
   C273       1.0     0.114571     0.392846     0.590728    Uiso  ? C
   C274       1.0     0.127781     0.378044     0.579113    Uiso  ? C
   C275       1.0     0.130848     0.357899     0.587130    Uiso  ? C
   H161       1.0     0.122074     0.352887     0.601574    Uiso  ? H
   C276       1.0     0.140708     0.342386     0.575115    Uiso  ? C
   H162       1.0     0.141647     0.326184     0.580466    Uiso  ? H
   C277       1.0     0.148850     0.347284     0.555792    Uiso  ? C
   H163       1.0     0.158032     0.335129     0.547767    Uiso  ? H
   C278       1.0     0.147196     0.368203     0.547906    Uiso  ? C
   C279       1.0     0.138086     0.383642     0.560790    Uiso  ? C
   H164       1.0     0.139068     0.399485     0.555521    Uiso  ? H
   C280       1.0     0.157016     0.374394     0.527131    Uiso  ? C
   C281       1.0     0.192669     0.396080     0.461669    Uiso  ? C
   C282       1.0     0.202773     0.402315     0.441873    Uiso  ? C
   C283       1.0     0.218623     0.388667     0.431941    Uiso  ? C
   H165       1.0     0.222391     0.374647     0.439398    Uiso  ? H
   C284       1.0     0.226925     0.393481     0.412819    Uiso  ? C
   H166       1.0     0.239886     0.384749     0.406998    Uiso  ? H
   C285       1.0     0.219943     0.411184     0.401857    Uiso  ? C
   H167       1.0     0.226549     0.412903     0.385916    Uiso  ? H
   C286       1.0     0.204261     0.423756     0.410231    Uiso  ? C
   C287       1.0     0.195758     0.419178     0.430443    Uiso  ? C
   H168       1.0     0.184351     0.429561     0.438086    Uiso  ? H
   C288       1.0     0.197181     0.441598     0.398271    Uiso  ? C
   O109       1.0     0.841550     0.402587     0.437156    Uiso  ? O
   O110       1.0     0.829221     0.377192     0.416221    Uiso  ? O
   O111       1.0     0.843046     0.427086     0.404835    Uiso  ? O
   O112       1.0     0.832332     0.399965     0.384196    Uiso  ? O
   O113       1.0     0.880077     0.412568     0.398213    Uiso  ? O
   O114       1.0     0.869096     0.387223     0.375477    Uiso  ? O
   O115       1.0     0.881513     0.392053     0.429026    Uiso  ? O
   O116       1.0     0.869126     0.364487     0.410791    Uiso  ? O
   O117       1.0     0.783362     0.456858     0.542412    Uiso  ? O
   O118       1.0     0.757105     0.434803     0.551525    Uiso  ? O
   O119       1.0     0.777838     0.453881     0.506544    Uiso  ? O
   O120       1.0     0.750389     0.432250     0.510158    Uiso  ? O
   O121       1.0     0.797855     0.421626     0.501658    Uiso  ? O
   O122       1.0     0.772215     0.398780     0.511208    Uiso  ? O
   O123       1.0     0.805451     0.421801     0.542612    Uiso  ? O
   O124       1.0     0.777208     0.400582     0.547532    Uiso  ? O
   O125       1.0     0.788164     0.541770     0.436549    Uiso  ? O
   O126       1.0     0.757571     0.542644     0.418637    Uiso  ? O
   O127       1.0     0.807645     0.532168     0.404018    Uiso  ? O
   O128       1.0     0.777156     0.536680     0.384692    Uiso  ? O
   O129       1.0     0.800055     0.493097     0.411022    Uiso  ? O
   O130       1.0     0.772370     0.496999     0.389653    Uiso  ? O
   O131       1.0     0.778420     0.502484     0.442353    Uiso  ? O
   O132       1.0     0.749919     0.503679     0.421731    Uiso  ? O
   O133       1.0     0.876583     0.450382     0.612783    Uiso  ? O
   O134       1.0     0.874073     0.426347     0.639477    Uiso  ? O
   O135       1.0     0.865147     0.418641     0.589611    Uiso  ? O
   O136       1.0     0.868136     0.394623     0.615361    Uiso  ? O
   O137       1.0     0.109481     0.410595     0.581683    Uiso  ? O
   O138       1.0     0.107883     0.388847     0.609912    Uiso  ? O
   O139       1.0     0.119912     0.441999     0.606976    Uiso  ? O
   O140       1.0     0.120402     0.419509     0.634348    Uiso  ? O
   O141       1.0     0.154512     0.393030     0.520373    Uiso  ? O
   O142       1.0     0.169639     0.361016     0.516424    Uiso  ? O
   O143       1.0     0.145648     0.383395     0.479963    Uiso  ? O
   O144       1.0     0.166616     0.355070     0.476205    Uiso  ? O
   O145       1.0     0.177086     0.406925     0.469529    Uiso  ? O
   O146       1.0     0.198024     0.377648     0.470665    Uiso  ? O
   O147       1.0     0.188121     0.411650     0.506655    Uiso  ? O
   O148       1.0     0.204871     0.380865     0.510840    Uiso  ? O
   O149       1.0     0.840649     0.550311     0.609712    Uiso  ? O
   O150       1.0     0.820652     0.558426     0.636860    Uiso  ? O
   O151       1.0     0.808645     0.556775     0.585147    Uiso  ? O
   O152       1.0     0.788165     0.564853     0.613110    Uiso  ? O
   O153       1.0     0.798216     0.518157     0.587984    Uiso  ? O
   O154       1.0     0.779265     0.522609     0.617901    Uiso  ? O
   O155       1.0     0.830117     0.512608     0.614610    Uiso  ? O
   O156       1.0     0.811749     0.520594     0.643107    Uiso  ? O
   O157       1.0     0.870740     0.431599     0.435235    Uiso  ? O
   O158       1.0     0.818617     0.454459     0.518338    Uiso  ? O
   O159       1.0     0.819731     0.516559     0.444353    Uiso  ? O
   O160       1.0     0.890012     0.452266     0.572883    Uiso  ? O
   O161       1.0     0.146197     0.424783     0.494286    Uiso  ? O
   O162       1.0     0.838427     0.527177     0.575591    Uiso  ? O
   Zn25       1.0     0.861417     0.410803     0.418964    Uiso  ? Zn
   Zn26       1.0     0.848865     0.379247     0.395022    Uiso  ? Zn
   Zn27       1.0     0.795462     0.439729     0.523579    Uiso  ? Zn
   Zn28       1.0     0.761003     0.415373     0.530860    Uiso  ? Zn
   Zn29       1.0     0.796613     0.517646     0.426279    Uiso  ? Zn
   Zn30       1.0     0.761339     0.520058     0.401877    Uiso  ? Zn
   Zn31       1.0     0.890633     0.432580     0.595126    Uiso  ? Zn
   Zn32       1.0     0.891072     0.405727     0.627213    Uiso  ? Zn
   Zn33       1.0     0.164695     0.401598     0.494391    Uiso  ? Zn
   Zn34       1.0     0.186427     0.366282     0.494953    Uiso  ? Zn
   Zn35       1.0     0.820647     0.533790     0.597808    Uiso  ? Zn
   Zn36       1.0     0.797869     0.541907     0.630050    Uiso  ? Zn
   C289       1.0     0.161251     0.625292     0.559036    Uiso  ? C
   C290       1.0     0.176260     0.631404     0.542790    Uiso  ? C
   C291       1.0     0.184268     0.652030     0.542842    Uiso  ? C
   H169       1.0     0.179884     0.665054     0.554447    Uiso  ? H
   C292       1.0     0.197997     0.657272     0.526202    Uiso  ? C
   H170       1.0     0.205259     0.672891     0.524796    Uiso  ? H
   C293       1.0     0.204974     0.643028     0.511383    Uiso  ? C
   H171       1.0     0.217449     0.646168     0.500386    Uiso  ? H
   C294       1.0     0.198447     0.622292     0.512163    Uiso  ? C
   C295       1.0     0.183780     0.616322     0.528327    Uiso  ? C
   H172       1.0     0.177872     0.600194     0.528631    Uiso  ? H
   C296       1.0     0.206397     0.605974     0.498056    Uiso  ? C
   C297       1.0     0.165190     0.591227     0.602964    Uiso  ? C
   C298       1.0     0.181437     0.577465     0.610392    Uiso  ? C
   C299       1.0     0.193848     0.583101     0.627302    Uiso  ? C
   H173       1.0     0.190377     0.596465     0.636339    Uiso  ? H
   C300       1.0     0.212537     0.573474     0.630053    Uiso  ? C
   H174       1.0     0.222320     0.578765     0.641846    Uiso  ? H
   C301       1.0     0.216241     0.554124     0.621464    Uiso  ? C
   H175       1.0     0.228877     0.543858     0.627685    Uiso  ? H
   C302       1.0     0.202153     0.546202     0.607076    Uiso  ? C
   C303       1.0     0.185037     0.558755     0.600820    Uiso  ? C
   H176       1.0     0.174881     0.554484     0.587174    Uiso  ? H
   C304       1.0     0.206750     0.525723     0.597063    Uiso  ? C
   C305       1.0     0.108885     0.602039     0.610123    Uiso  ? C
   C306       1.0     0.887520     0.596270     0.624256    Uiso  ? C
   C307       1.0     0.887746     0.603866     0.644447    Uiso  ? C
   H177       1.0     0.105208     0.612974     0.649416    Uiso  ? H
   C308       1.0     0.871470     0.599442     0.658325    Uiso  ? C
   H178       1.0     0.872312     0.605680     0.674362    Uiso  ? H
   C309       1.0     0.855622     0.585789     0.652985    Uiso  ? C
   H179       1.0     0.843385     0.581820     0.663755    Uiso  ? H
   C310       1.0     0.854052     0.578679     0.631880    Uiso  ? C
   C311       1.0     0.870906     0.583055     0.617978    Uiso  ? C
   H180       1.0     0.871523     0.575678     0.602301    Uiso  ? H
   C312       1.0     0.837334     0.562380     0.626140    Uiso  ? C
   C313       1.0     0.110248     0.635442     0.570107    Uiso  ? C
   C314       1.0     0.889205     0.648768     0.562548    Uiso  ? C
   C315       1.0     0.890334     0.670422     0.567068    Uiso  ? C
   H181       1.0     0.103883     0.676232     0.579674    Uiso  ? H
   C316       1.0     0.875936     0.684162     0.556970    Uiso  ? C
   H182       1.0     0.875093     0.700719     0.559783    Uiso  ? H
   C317       1.0     0.862497     0.676838     0.541040    Uiso  ? C
   H183       1.0     0.851828     0.687460     0.534401    Uiso  ? H
   C318       1.0     0.862228     0.655212     0.536783    Uiso  ? C
   C319       1.0     0.875488     0.641317     0.547562    Uiso  ? C
   H184       1.0     0.875398     0.624690     0.543075    Uiso  ? H
   C320       1.0     0.847054     0.646361     0.520931    Uiso  ? C
   C321       1.0     0.227879     0.554864     0.442439    Uiso  ? C
   C322       1.0     0.232072     0.539394     0.425782    Uiso  ? C
   C323       1.0     0.251510     0.540556     0.415107    Uiso  ? C
   H185       1.0     0.264976     0.548265     0.423467    Uiso  ? H
   C324       1.0     0.255877     0.526358     0.399053    Uiso  ? C
   H186       1.0     0.272781     0.526359     0.393025    Uiso  ? H
   C325       1.0     0.241035     0.512560     0.390843    Uiso  ? C
   H187       1.0     0.245186     0.503252     0.377091    Uiso  ? H
   C326       1.0     0.221466     0.510982     0.400587    Uiso  ? C
   C327       1.0     0.217047     0.524002     0.418051    Uiso  ? C
   H188       1.0     0.201745     0.521458     0.426171    Uiso  ? H
   C328       1.0     0.206074     0.495259     0.392133    Uiso  ? C
   C329       1.0     0.238918     0.563175     0.496257    Uiso  ? C
   C330       1.0     0.250484     0.553015     0.513913    Uiso  ? C
   C331       1.0     0.272477     0.557346     0.517415    Uiso  ? C
   H189       1.0     0.280261     0.567546     0.507484    Uiso  ? H
   C332       1.0     0.282740     0.547760     0.534443    Uiso  ? C
   H190       1.0     0.296634     0.554435     0.538958    Uiso  ? H
   C333       1.0     0.271517     0.533781     0.547116    Uiso  ? C
   H191       1.0     0.281233     0.527452     0.559333    Uiso  ? H
   C334       1.0     0.250645     0.528782     0.543025    Uiso  ? C
   C335       1.0     0.239676     0.538347     0.526089    Uiso  ? C
   H192       1.0     0.223401     0.534758     0.522209    Uiso  ? H
   C336       1.0     0.239464     0.514554     0.557223    Uiso  ? C
   C337       1.0     0.197825     0.602480     0.444891    Uiso  ? C
   C338       1.0     0.185363     0.613413     0.428442    Uiso  ? C
   C339       1.0     0.193690     0.629931     0.416806    Uiso  ? C
   H193       1.0     0.207945     0.637549     0.422019    Uiso  ? H
   C340       1.0     0.184115     0.637164     0.399408    Uiso  ? C
   H194       1.0     0.191819     0.647575     0.389478    Uiso  ? H
   C341       1.0     0.164628     0.629232     0.393180    Uiso  ? C
   H195       1.0     0.155857     0.634163     0.379934    Uiso  ? H
   C342       1.0     0.155586     0.612500     0.404599    Uiso  ? C
   C343       1.0     0.166242     0.604903     0.422817    Uiso  ? C
   H196       1.0     0.159368     0.591757     0.431405    Uiso  ? H
   C344       1.0     0.135879     0.603377     0.398024    Uiso  ? C
   C345       1.0     0.225211     0.459442     0.561028    Uiso  ? C
   C346       1.0     0.230546     0.439845     0.550399    Uiso  ? C
   C347       1.0     0.249727     0.430190     0.553416    Uiso  ? C
   H197       1.0     0.259743     0.436905     0.564852    Uiso  ? H
   C348       1.0     0.253723     0.410954     0.543542    Uiso  ? C
   H198       1.0     0.269083     0.404304     0.544087    Uiso  ? H
   C349       1.0     0.239107     0.401853     0.530925    Uiso  ? C
   H199       1.0     0.242116     0.386265     0.523922    Uiso  ? H
   C350       1.0     0.219558     0.411347     0.527025    Uiso  ? C
   C351       1.0     0.214914     0.429932     0.537782    Uiso  ? C
   H200       1.0     0.201357     0.440511     0.535147    Uiso  ? H
   C352       1.0     0.203446     0.400991     0.514265    Uiso  ? C
   C353       1.0     0.195244     0.472840     0.605497    Uiso  ? C
   C354       1.0     0.183443     0.459394     0.620058    Uiso  ? C
   C355       1.0     0.193894     0.449617     0.636774    Uiso  ? C
   H201       1.0     0.210721     0.449631     0.638717    Uiso  ? H
   C356       1.0     0.182308     0.437286     0.650733    Uiso  ? C
   H202       1.0     0.188708     0.430009     0.665202    Uiso  ? H
   C357       1.0     0.160985     0.433861     0.647997    Uiso  ? C
   H203       1.0     0.151610     0.422223     0.656578    Uiso  ? H
   C358       1.0     0.150944     0.442343     0.630072    Uiso  ? C
   C359       1.0     0.162585     0.454365     0.616683    Uiso  ? C
   H204       1.0     0.154759     0.459302     0.603285    Uiso  ? H
   C360       1.0     0.128942     0.434666     0.623927    Uiso  ? C
   C361       1.0     0.119707     0.564898     0.363448    Uiso  ? C
   C362       1.0     0.131445     0.548880     0.351506    Uiso  ? C
   C363       1.0     0.133194     0.551213     0.330123    Uiso  ? C
   H205       1.0     0.127778     0.564651     0.321697    Uiso  ? H
   C364       1.0     0.144493     0.537120     0.318061    Uiso  ? C
   H206       1.0     0.145722     0.540385     0.300596    Uiso  ? H
   C365       1.0     0.153647     0.519823     0.326745    Uiso  ? C
   H207       1.0     0.158801     0.506685     0.317456    Uiso  ? H
   C366       1.0     0.152865     0.517440     0.349389    Uiso  ? C
   C367       1.0     0.141489     0.531977     0.362015    Uiso  ? C
   H208       1.0     0.140201     0.530530     0.378323    Uiso  ? H
   C368       1.0     0.161168     0.499125     0.360490    Uiso  ? C
   C369       1.0     0.880973     0.619470     0.405595    Uiso  ? C
   C370       1.0     0.868600     0.635819     0.417536    Uiso  ? C
   C371       1.0     0.864640     0.655768     0.408865    Uiso  ? C
   H209       1.0     0.873112     0.660839     0.395449    Uiso  ? H
   C372       1.0     0.851086     0.669729     0.419085    Uiso  ? C
   H210       1.0     0.850658     0.685304     0.414879    Uiso  ? H
   C373       1.0     0.841239     0.664723     0.438532    Uiso  ? C
   H211       1.0     0.831949     0.675507     0.447294    Uiso  ? H
   C374       1.0     0.845299     0.645325     0.447641    Uiso  ? C
   C375       1.0     0.859559     0.630968     0.437281    Uiso  ? C
   H212       1.0     0.862896     0.615987     0.445905    Uiso  ? H
   C376       1.0     0.836043     0.640599     0.468120    Uiso  ? C
   C377       1.0     0.801003     0.620991     0.535323    Uiso  ? C
   C378       1.0     0.789961     0.615085     0.554947    Uiso  ? C
   C379       1.0     0.772214     0.626296     0.562799    Uiso  ? C
   H213       1.0     0.766619     0.640294     0.554952    Uiso  ? H
   C380       1.0     0.762667     0.619284     0.581755    Uiso  ? C
   H214       1.0     0.750149     0.629147     0.589859    Uiso  ? H
   C381       1.0     0.771164     0.601932     0.592079    Uiso  ? C
   H215       1.0     0.764944     0.598414     0.607499    Uiso  ? H
   C382       1.0     0.787695     0.589405     0.583940    Uiso  ? C
   C383       1.0     0.796969     0.596936     0.565445    Uiso  ? C
   H216       1.0     0.809749     0.587960     0.557833    Uiso  ? H
   C384       1.0     0.795756     0.569828     0.594444    Uiso  ? C
   O163       1.0     0.149396     0.608843     0.556019    Uiso  ? O
   O164       1.0     0.161968     0.634154     0.578154    Uiso  ? O
   O165       1.0     0.152014     0.584045     0.588768    Uiso  ? O
   O166       1.0     0.162807     0.609864     0.609845    Uiso  ? O
   O167       1.0     0.110169     0.592758     0.592373    Uiso  ? O
   O168       1.0     0.122182     0.617276     0.615186    Uiso  ? O
   O169       1.0     0.112911     0.616605     0.562745    Uiso  ? O
   O170       1.0     0.123269     0.642703     0.584944    Uiso  ? O
   O171       1.0     0.210889     0.551468     0.454254    Uiso  ? O
   O172       1.0     0.239532     0.571591     0.444605    Uiso  ? O
   O173       1.0     0.219679     0.557457     0.491829    Uiso  ? O
   O174       1.0     0.247658     0.577980     0.485418    Uiso  ? O
   O175       1.0     0.195443     0.589222     0.495463    Uiso  ? O
   O176       1.0     0.223348     0.608496     0.485792    Uiso  ? O
   O177       1.0     0.189416     0.586593     0.454199    Uiso  ? O
   O178       1.0     0.217032     0.606686     0.447142    Uiso  ? O
   O179       1.0     0.207957     0.469429     0.555936    Uiso  ? O
   O180       1.0     0.237803     0.468112     0.574474    Uiso  ? O
   O181       1.0     0.186310     0.479141     0.587943    Uiso  ? O
   O182       1.0     0.214664     0.476435     0.609762    Uiso  ? O
   O183       1.0     0.194331     0.518020     0.582444    Uiso  ? O
   O184       1.0     0.223170     0.514918     0.602946    Uiso  ? O
   O185       1.0     0.219934     0.508825     0.552970    Uiso  ? O
   O186       1.0     0.248232     0.508794     0.574247    Uiso  ? O
   O187       1.0     0.115528     0.562132     0.382957    Uiso  ? O
   O188       1.0     0.113336     0.582067     0.353985    Uiso  ? O
   O189       1.0     0.125436     0.590353     0.409874    Uiso  ? O
   O190       1.0     0.128015     0.610154     0.380266    Uiso  ? O
   O191       1.0     0.883825     0.600840     0.413694    Uiso  ? O
   O192       1.0     0.885966     0.623168     0.385790    Uiso  ? O
   O193       1.0     0.870446     0.572171     0.390049    Uiso  ? O
   O194       1.0     0.872363     0.594121     0.362120    Uiso  ? O
   O195       1.0     0.841427     0.623016     0.477193    Uiso  ? O
   O196       1.0     0.822701     0.653751     0.476327    Uiso  ? O
   O197       1.0     0.848940     0.627145     0.514298    Uiso  ? O
   O198       1.0     0.829920     0.656372     0.517432    Uiso  ? O
   O199       1.0     0.814666     0.608568     0.526596    Uiso  ? O
   O200       1.0     0.796577     0.638222     0.525661    Uiso  ? O
   O201       1.0     0.808764     0.600427     0.485695    Uiso  ? O
   O202       1.0     0.789917     0.630353     0.485348    Uiso  ? O
   O203       1.0     0.149170     0.452130     0.386813    Uiso  ? O
   O204       1.0     0.167000     0.449429     0.355570    Uiso  ? O
   O205       1.0     0.184064     0.454523     0.407738    Uiso  ? O
   O206       1.0     0.200877     0.442993     0.377740    Uiso  ? O
   O207       1.0     0.187440     0.493174     0.401657    Uiso  ? O
   O208       1.0     0.209762     0.483286     0.375822    Uiso  ? O
   O209       1.0     0.153052     0.492490     0.378365    Uiso  ? O
   O210       1.0     0.177994     0.489545     0.352088    Uiso  ? O
   O211       1.0     0.124504     0.575262     0.558490    Uiso  ? O
   O212       1.0     0.177636     0.553902     0.479733    Uiso  ? O
   O213       1.0     0.178660     0.499133     0.548657    Uiso  ? O
   O214       1.0     0.894723     0.558516     0.422974    Uiso  ? O
   O215       1.0     0.845001     0.589615     0.501445    Uiso  ? O
   O216       1.0     0.149060     0.477712     0.418581    Uiso  ? O
   Zn37       1.0     0.130867     0.597211     0.573836    Uiso  ? Zn
   Zn38       1.0     0.143714     0.629116     0.599982    Uiso  ? Zn
   Zn39       1.0     0.201130     0.569719     0.474006    Uiso  ? Zn
   Zn40       1.0     0.236052     0.592247     0.464351    Uiso  ? Zn
   Zn41       1.0     0.199353     0.494026     0.567403    Uiso  ? Zn
   Zn42       1.0     0.234157     0.490465     0.592506    Uiso  ? Zn
   Zn43       1.0     0.897183     0.578693     0.401105    Uiso  ? Zn
   Zn44       1.0     0.102321     0.605005     0.367785    Uiso  ? Zn
   Zn45       1.0     0.829245     0.613770     0.500638    Uiso  ? Zn
   Zn46       1.0     0.808257     0.647903     0.501353    Uiso  ? Zn
   Zn47       1.0     0.166779     0.472948     0.395904    Uiso  ? Zn
   Zn48       1.0     0.190505     0.465967     0.361686    Uiso  ? Zn
   H217       1.0     0.166297     0.563710     0.483882    Uiso  ? H
   H218       1.0     0.181447     0.546831     0.493548    Uiso  ? H
   H219       1.0     0.829612     0.444155     0.514115    Uiso  ? H
   H220       1.0     0.815112     0.461460     0.504442    Uiso  ? H
   H221       1.0     0.851426     0.535542     0.577651    Uiso  ? H
   H222       1.0     0.831395     0.534514     0.563911    Uiso  ? H
   H223       1.0     0.105563     0.447665     0.562861    Uiso  ? H
   H224       1.0     0.878461     0.446756     0.564855    Uiso  ? H
   H225       1.0     0.157552     0.477458     0.432072    Uiso  ? H
   H226       1.0     0.147077     0.492668     0.416643    Uiso  ? H
   H227       1.0     0.859224     0.439240     0.441363    Uiso  ? H
   H228       1.0     0.877309     0.442433     0.425014    Uiso  ? H
   H229       1.0     0.142800     0.426688     0.479494    Uiso  ? H
   H230       1.0     0.133394     0.418702     0.500008    Uiso  ? H
   H231       1.0     0.880301     0.557893     0.426910    Uiso  ? H
   H232       1.0     0.105469     0.563452     0.435649    Uiso  ? H
   H233       1.0     0.822618     0.501404     0.447305    Uiso  ? H
   H234       1.0     0.832290     0.521120     0.436266    Uiso  ? H
   H235       1.0     0.834905     0.578419     0.500511    Uiso  ? H
   H236       1.0     0.853392     0.588930     0.488098    Uiso  ? H
   H237       1.0     0.183693     0.500916     0.534077    Uiso  ? H
   H238       1.0     0.171219     0.485713     0.548846    Uiso  ? H
   H239       1.0     0.136811     0.572475     0.549698    Uiso  ? H
   H240       1.0     0.114908     0.579960     0.548120    Uiso  ? H
   C385       1.0     0.609367     0.816892     0.443765    Uiso  ? C
   C386       1.0     0.613631     0.801827     0.460316    Uiso  ? C
   C387       1.0     0.629302     0.787078     0.457145    Uiso  ? C
   H241       1.0     0.637254     0.785112     0.442236    Uiso  ? H
   C388       1.0     0.633575     0.772656     0.473497    Uiso  ? C
   H242       1.0     0.646145     0.761939     0.471947    Uiso  ? H
   C389       1.0     0.622136     0.772708     0.491821    Uiso  ? C
   H243       1.0     0.625275     0.763333     0.505175    Uiso  ? H
   C390       1.0     0.605748     0.787317     0.494502    Uiso  ? C
   C391       1.0     0.601611     0.802138     0.478870    Uiso  ? C
   H244       1.0     0.589298     0.813152     0.480703    Uiso  ? H
   C392       1.0     0.591955     0.784144     0.511999    Uiso  ? C
   C393       1.0     0.576581     0.821352     0.399636    Uiso  ? C
   C394       1.0     0.561716     0.806860     0.390632    Uiso  ? C
   C395       1.0     0.566256     0.796900     0.371193    Uiso  ? C
   H245       1.0     0.581244     0.798589     0.364347    Uiso  ? H
   C396       1.0     0.552365     0.782575     0.362986    Uiso  ? C
   H246       1.0     0.555599     0.773746     0.348474    Uiso  ? H
   C397       1.0     0.533729     0.777318     0.374002    Uiso  ? C
   H247       1.0     0.523003     0.765929     0.367397    Uiso  ? H
   C398       1.0     0.528046     0.788376     0.392767    Uiso  ? C
   C399       1.0     0.542458     0.803324     0.400115    Uiso  ? C
   H248       1.0     0.537428     0.810027     0.415070    Uiso  ? H
   C400       1.0     0.508830     0.783124     0.405054    Uiso  ? C
   C401       1.0     0.595225     0.872044     0.389623    Uiso  ? C
   C402       1.0     0.591293     0.887654     0.373565    Uiso  ? C
   C403       1.0     0.601822     0.887514     0.354160    Uiso  ? C
   H249       1.0     0.611666     0.876584     0.350374    Uiso  ? H
   C404       1.0     0.599645     0.108042     0.340348    Uiso  ? C
   H250       1.0     0.607545     0.108732     0.325229    Uiso  ? H
   C405       1.0     0.587433     0.125180     0.345367    Uiso  ? C
   H251       1.0     0.585069     0.136362     0.333019    Uiso  ? H
   C406       1.0     0.576277     0.126175     0.363493    Uiso  ? C
   C407       1.0     0.579313     0.109594     0.378684    Uiso  ? C
   H252       1.0     0.572608     0.108427     0.394021    Uiso  ? H
   C408       1.0     0.562170     0.143589     0.368490    Uiso  ? C
   C409       1.0     0.629426     0.867884     0.432349    Uiso  ? C
   C410       1.0     0.644436     0.883527     0.440997    Uiso  ? C
   C411       1.0     0.665278     0.884575     0.433458    Uiso  ? C
   H253       1.0     0.669825     0.873139     0.420574    Uiso  ? H
   C412       1.0     0.679017     0.104881     0.438457    Uiso  ? C
   H254       1.0     0.694843     0.106143     0.431187    Uiso  ? H
   C413       1.0     0.672027     0.120535     0.451958    Uiso  ? C
   H255       1.0     0.682029     0.133467     0.456576    Uiso  ? H
   C414       1.0     0.651843     0.120055     0.460270    Uiso  ? C
   C415       1.0     0.638607     0.103484     0.454080    Uiso  ? C
   H256       1.0     0.622305     0.102793     0.458181    Uiso  ? H
   C416       1.0     0.643283     0.138879     0.472675    Uiso  ? C
   C417       1.0     0.540487     0.771225     0.569526    Uiso  ? C
   C418       1.0     0.524347     0.769135     0.585862    Uiso  ? C
   C419       1.0     0.523563     0.752324     0.599341    Uiso  ? C
   H257       1.0     0.533149     0.739277     0.596250    Uiso  ? H
   C420       1.0     0.508395     0.751154     0.615203    Uiso  ? C
   H258       1.0     0.508001     0.736647     0.624218    Uiso  ? H
   C421       1.0     0.494643     0.767446     0.618254    Uiso  ? C
   H259       1.0     0.482542     0.765266     0.629023    Uiso  ? H
   C422       1.0     0.496781     0.785930     0.607292    Uiso  ? C
   C423       1.0     0.510247     0.785587     0.589515    Uiso  ? C
   H260       1.0     0.510547     0.799640     0.579330    Uiso  ? H
   C424       1.0     0.483501     0.804002     0.612363    Uiso  ? C
   C425       1.0     0.544088     0.756963     0.513798    Uiso  ? C
   C426       1.0     0.533995     0.746196     0.495814    Uiso  ? C
   C427       1.0     0.537732     0.724875     0.492205    Uiso  ? C
   H261       1.0     0.547793     0.715902     0.501830    Uiso  ? H
   C428       1.0     0.527803     0.715460     0.475018    Uiso  ? C
   H262       1.0     0.531069     0.698617     0.472980    Uiso  ? H
   C429       1.0     0.513419     0.725111     0.462863    Uiso  ? C
   H263       1.0     0.505971     0.717931     0.449422    Uiso  ? H
   C430       1.0     0.509097     0.746144     0.467892    Uiso  ? C
   C431       1.0     0.519340     0.756486     0.484147    Uiso  ? C
   H264       1.0     0.513974     0.772894     0.486224    Uiso  ? H
   C432       1.0     0.495023     0.758197     0.453063    Uiso  ? C
   C433       1.0     0.586889     0.797168     0.565672    Uiso  ? C
   C434       1.0     0.598123     0.809863     0.580505    Uiso  ? C
   C435       1.0     0.616355     0.801361     0.588377    Uiso  ? C
   H265       1.0     0.621032     0.785728     0.585468    Uiso  ? H
   C436       1.0     0.629349     0.812849     0.602222    Uiso  ? C
   H266       1.0     0.643774     0.806918     0.609216    Uiso  ? H
   C437       1.0     0.622841     0.831992     0.609366    Uiso  ? C
   H267       1.0     0.632348     0.839723     0.621888    Uiso  ? H
   C438       1.0     0.604547     0.840999     0.600562    Uiso  ? C
   C439       1.0     0.592524     0.829715     0.585943    Uiso  ? C
   H268       1.0     0.578847     0.837742     0.577921    Uiso  ? H
   C440       1.0     0.599379     0.862547     0.605900    Uiso  ? C
   C441       1.0     0.442365     0.773355     0.443063    Uiso  ? C
   C442       1.0     0.421596     0.770762     0.452552    Uiso  ? C
   C443       1.0     0.408227     0.754163     0.447137    Uiso  ? C
   H269       1.0     0.413682     0.740698     0.438039    Uiso  ? H
   C444       1.0     0.388673     0.753861     0.455963    Uiso  ? C
   H270       1.0     0.379771     0.739863     0.452367    Uiso  ? H
   C445       1.0     0.380697     0.768388     0.469129    Uiso  ? C
   H271       1.0     0.365748     0.764762     0.476740    Uiso  ? H
   C446       1.0     0.393586     0.785842     0.474289    Uiso  ? C
   C447       1.0     0.414175     0.786693     0.466852    Uiso  ? C
   H272       1.0     0.423955     0.800053     0.469626    Uiso  ? H
   C448       1.0     0.384890     0.803256     0.487810    Uiso  ? C
   C449       1.0     0.454669     0.798377     0.399067    Uiso  ? C
   C450       1.0     0.441549     0.810155     0.384154    Uiso  ? C
   C451       1.0     0.431850     0.800005     0.367312    Uiso  ? C
   H273       1.0     0.433328     0.783481     0.365120    Uiso  ? H
   C452       1.0     0.419396     0.809979     0.353255    Uiso  ? C
   H274       1.0     0.412972     0.800546     0.340700    Uiso  ? H
   C453       1.0     0.414378     0.831597     0.355179    Uiso  ? C
   H275       1.0     0.403851     0.839251     0.344936    Uiso  ? H
   C454       1.0     0.423819     0.842768     0.372230    Uiso  ? C
   C455       1.0     0.437879     0.831991     0.385522    Uiso  ? C
   H276       1.0     0.444808     0.838790     0.399273    Uiso  ? H
   C456       1.0     0.417248     0.864749     0.376728    Uiso  ? C
   C457       1.0     0.559103     0.883862     0.636220    Uiso  ? C
   C458       1.0     0.542128     0.872840     0.647499    Uiso  ? C
   C459       1.0     0.546439     0.865248     0.667667    Uiso  ? C
   H277       1.0     0.560613     0.869160     0.675750    Uiso  ? H
   C460       1.0     0.531721     0.853308     0.678180    Uiso  ? C
   H278       1.0     0.532683     0.847141     0.694294    Uiso  ? H
   C461       1.0     0.512416     0.848219     0.669065    Uiso  ? C
   H279       1.0     0.501520     0.838556     0.677594    Uiso  ? H
   C462       1.0     0.507607     0.856812     0.649829    Uiso  ? C
   C463       1.0     0.522701     0.869168     0.638670    Uiso  ? C
   H280       1.0     0.519545     0.872488     0.622541    Uiso  ? H
   C464       1.0     0.487712     0.850659     0.639109    Uiso  ? C
   C465       1.0     0.613154     0.119820     0.591042    Uiso  ? C
   C466       1.0     0.630122     0.131580     0.578572    Uiso  ? C
   C467       1.0     0.650448     0.132881     0.585917    Uiso  ? C
   H281       1.0     0.655401     0.125074     0.600961    Uiso  ? H
   C468       1.0     0.665779     0.143825     0.575269    Uiso  ? C
   H282       1.0     0.680915     0.146029     0.581678    Uiso  ? H
   C469       1.0     0.662149     0.149852     0.553835    Uiso  ? C
   H283       1.0     0.673297     0.159587     0.546161    Uiso  ? H
   C470       1.0     0.641629     0.148176     0.545616    Uiso  ? C
   C471       1.0     0.624842     0.139575     0.558299    Uiso  ? C
   H284       1.0     0.608593     0.140361     0.553566    Uiso  ? H
   C472       1.0     0.636671     0.153953     0.523779    Uiso  ? C
   C473       1.0     0.619568     0.187206     0.454832    Uiso  ? C
   C474       1.0     0.611513     0.198124     0.436453    Uiso  ? C
   C475       1.0     0.620190     0.217296     0.428405    Uiso  ? C
   H285       1.0     0.633613     0.224309     0.435579    Uiso  ? H
   C476       1.0     0.611632     0.227336     0.411285    Uiso  ? C
   H286       1.0     0.617885     0.242666     0.406060    Uiso  ? H
   C477       1.0     0.595100     0.218217     0.400496    Uiso  ? C
   H287       1.0     0.589720     0.225645     0.386343    Uiso  ? H
   C478       1.0     0.585650     0.199594     0.408216    Uiso  ? C
   C479       1.0     0.593819     0.190407     0.426167    Uiso  ? C
   H288       1.0     0.588089     0.175138     0.431114    Uiso  ? H
   C480       1.0     0.567992     0.189565     0.397769    Uiso  ? C
   O217       1.0     0.595726     0.831145     0.446457    Uiso  ? O
   O218       1.0     0.619049     0.816144     0.425574    Uiso  ? O
   O219       1.0     0.571451     0.833512     0.415430    Uiso  ? O
   O220       1.0     0.595937     0.820933     0.391910    Uiso  ? O
   O221       1.0     0.584706     0.871382     0.407106    Uiso  ? O
   O222       1.0     0.609887     0.857960     0.386062    Uiso  ? O
   O223       1.0     0.609829     0.868307     0.437783    Uiso  ? O
   O224       1.0     0.635634     0.854486     0.418162    Uiso  ? O
   O225       1.0     0.537170     0.786576     0.556059    Uiso  ? O
   O226       1.0     0.554263     0.756889     0.565938    Uiso  ? O
   O227       1.0     0.541291     0.776516     0.516843    Uiso  ? O
   O228       1.0     0.556620     0.746976     0.526119    Uiso  ? O
   O229       1.0     0.577098     0.797480     0.515091    Uiso  ? O
   O230       1.0     0.593008     0.766513     0.522045    Uiso  ? O
   O231       1.0     0.572523     0.806868     0.555793    Uiso  ? O
   O232       1.0     0.589635     0.777580     0.563875    Uiso  ? O
   O233       1.0     0.453820     0.789438     0.447240    Uiso  ? O
   O234       1.0     0.450415     0.757979     0.431602    Uiso  ? O
   O235       1.0     0.467399     0.808929     0.412525    Uiso  ? O
   O236       1.0     0.455284     0.778710     0.398560    Uiso  ? O
   O237       1.0     0.502829     0.795430     0.420521    Uiso  ? O
   O238       1.0     0.496516     0.767715     0.400083    Uiso  ? O
   O239       1.0     0.492533     0.778334     0.454368    Uiso  ? O
   O240       1.0     0.487822     0.748686     0.435512    Uiso  ? O
   O241       1.0     0.555114     0.891582     0.617544    Uiso  ? O
   O242       1.0     0.577902     0.886549     0.644091    Uiso  ? O
   O243       1.0     0.585216     0.872224     0.594882    Uiso  ? O
   O244       1.0     0.608931     0.872446     0.621131    Uiso  ? O
   O245       1.0     0.593902     0.117125     0.583799    Uiso  ? O
   O246       1.0     0.617405     0.113619     0.611091    Uiso  ? O
   O247       1.0     0.569655     0.129383     0.608221    Uiso  ? O
   O248       1.0     0.591592     0.128501     0.637630    Uiso  ? O
   O249       1.0     0.619169     0.149844     0.515340    Uiso  ? O
   O250       1.0     0.649968     0.165820     0.513059    Uiso  ? O
   O251       1.0     0.623975     0.138162     0.479447    Uiso  ? O
   O252       1.0     0.652900     0.157129     0.472015    Uiso  ? O
   O253       1.0     0.608582     0.172477     0.463408    Uiso  ? O
   O254       1.0     0.636839     0.192020     0.463569    Uiso  ? O
   O255       1.0     0.600337     0.182453     0.503323    Uiso  ? O
   O256       1.0     0.632254     0.199512     0.501421    Uiso  ? O
   O257       1.0     0.443949     0.860004     0.613515    Uiso  ? O
   O258       1.0     0.436343     0.845870     0.644710    Uiso  ? O
   O259       1.0     0.441162     0.827275     0.592634    Uiso  ? O
   O260       1.0     0.431831     0.810432     0.622282    Uiso  ? O
   O261       1.0     0.481466     0.819308     0.598337    Uiso  ? O
   O262       1.0     0.472164     0.804231     0.629217    Uiso  ? O
   O263       1.0     0.483483     0.855127     0.619426    Uiso  ? O
   O264       1.0     0.475482     0.836822     0.648512    Uiso  ? O
   O265       1.0     0.567953     0.862528     0.445583    Uiso  ? O
   O266       1.0     0.542527     0.818463     0.527036    Uiso  ? O
   O267       1.0     0.481678     0.820960     0.448664    Uiso  ? O
   O268       1.0     0.556090     0.896928     0.576435    Uiso  ? O
   O269       1.0     0.583448     0.143098     0.488410    Uiso  ? O
   O270       1.0     0.469537     0.857298     0.578397    Uiso  ? O
   Zn49       1.0     0.589113     0.852372     0.428444    Uiso  ? Zn
   Zn50       1.0     0.618425     0.836708     0.403473    Uiso  ? Zn
   Zn51       1.0     0.555178     0.794714     0.534790    Uiso  ? Zn
   Zn52       1.0     0.575298     0.759423     0.545275    Uiso  ? Zn
   Zn53       1.0     0.479149     0.796032     0.434960    Uiso  ? Zn
   Zn54       1.0     0.471586     0.760572     0.414150    Uiso  ? Zn
   Zn55       1.0     0.575146     0.102991     0.598415    Uiso  ? Zn
   Zn56       1.0     0.601444     0.102570     0.631139    Uiso  ? Zn
   Zn57       1.0     0.609458     0.158996     0.489435    Uiso  ? Zn
   Zn58       1.0     0.646924     0.179196     0.487467    Uiso  ? Zn
   Zn59       1.0     0.463900     0.841938     0.602691    Uiso  ? Zn
   Zn60       1.0     0.452670     0.822857     0.638512    Uiso  ? Zn
   C481       1.0     0.384638     0.185705     0.556583    Uiso  ? C
   C482       1.0     0.380445     0.200968     0.540231    Uiso  ? C
   C483       1.0     0.364115     0.215120     0.543165    Uiso  ? C
   H289       1.0     0.353639     0.213142     0.556877    Uiso  ? H
   C484       1.0     0.360274     0.229464     0.527204    Uiso  ? C
   H290       1.0     0.346887     0.239005     0.526604    Uiso  ? H
   C485       1.0     0.373695     0.231993     0.510870    Uiso  ? C
   H291       1.0     0.370661     0.244324     0.500345    Uiso  ? H
   C486       1.0     0.390471     0.217560     0.507878    Uiso  ? C
   C487       1.0     0.392788     0.200797     0.522134    Uiso  ? C
   H292       1.0     0.406076     0.190375     0.520215    Uiso  ? H
   C488       1.0     0.404362     0.219472     0.488714    Uiso  ? C
   C489       1.0     0.423678     0.185134     0.598543    Uiso  ? C
   C490       1.0     0.437268     0.202222     0.606296    Uiso  ? C
   C491       1.0     0.430250     0.216536     0.621468    Uiso  ? C
   H293       1.0     0.414205     0.216674     0.626694    Uiso  ? H
   C492       1.0     0.444320     0.230437     0.629722    Uiso  ? C
   H294       1.0     0.440041     0.241778     0.641034    Uiso  ? H
   C493       1.0     0.464970     0.231227     0.621839    Uiso  ? C
   H295       1.0     0.474690     0.244654     0.626702    Uiso  ? H
   C494       1.0     0.471637     0.218862     0.604891    Uiso  ? C
   C495       1.0     0.457470     0.205307     0.597636    Uiso  ? C
   H296       1.0     0.460997     0.193879     0.584622    Uiso  ? H
   C496       1.0     0.491832     0.220557     0.594087    Uiso  ? C
   C497       1.0     0.404423     0.133175     0.609751    Uiso  ? C
   C498       1.0     0.407479     0.117356     0.626012    Uiso  ? C
   C499       1.0     0.394202     0.117009     0.643521    Uiso  ? C
   H297       1.0     0.384574     0.130048     0.647678    Uiso  ? H
   C500       1.0     0.394676     0.896577     0.657896    Uiso  ? C
   H298       1.0     0.385369     0.895755     0.671998    Uiso  ? H
   C501       1.0     0.408674     0.880017     0.654505    Uiso  ? C
   H299       1.0     0.411136     0.867524     0.665150    Uiso  ? H
   C502       1.0     0.420724     0.879944     0.636222    Uiso  ? C
   C503       1.0     0.420186     0.896937     0.622676    Uiso  ? C
   H300       1.0     0.428405     0.896569     0.608753    Uiso  ? H
   C504       1.0     0.434329     0.861161     0.631805    Uiso  ? C
   C505       1.0     0.370916     0.136048     0.566665    Uiso  ? C
   C506       1.0     0.355666     0.119612     0.558959    Uiso  ? C
   C507       1.0     0.333274     0.121720     0.562426    Uiso  ? C
   H301       1.0     0.325132     0.135679     0.567115    Uiso  ? H
   C508       1.0     0.321542     0.104549     0.556918    Uiso  ? C
   H302       1.0     0.305914     0.106583     0.557869    Uiso  ? H
   C509       1.0     0.328327     0.882025     0.547826    Uiso  ? C
   H303       1.0     0.316625     0.869929     0.543248    Uiso  ? H
   C510       1.0     0.349893     0.881090     0.543276    Uiso  ? C
   C511       1.0     0.363615     0.896787     0.549695    Uiso  ? C
   H304       1.0     0.379744     0.895537     0.548130    Uiso  ? H
   C512       1.0     0.357892     0.864521     0.529446    Uiso  ? C
   C513       1.0     0.458961     0.228015     0.435936    Uiso  ? C
   C514       1.0     0.474503     0.231183     0.420342    Uiso  ? C
   C515       1.0     0.475605     0.250821     0.409741    Uiso  ? C
   H305       1.0     0.465852     0.263729     0.415492    Uiso  ? H
   C516       1.0     0.489940     0.253472     0.392565    Uiso  ? C
   H306       1.0     0.490981     0.268626     0.383835    Uiso  ? H
   C517       1.0     0.503206     0.237338     0.386024    Uiso  ? C
   H307       1.0     0.512886     0.240108     0.372891    Uiso  ? H
   C518       1.0     0.503087     0.218374     0.397553    Uiso  ? C
   C519       1.0     0.487727     0.215113     0.413734    Uiso  ? C
   H308       1.0     0.484927     0.198985     0.419143    Uiso  ? H
   C520       1.0     0.516986     0.201217     0.390746    Uiso  ? C
   C521       1.0     0.452192     0.245092     0.488618    Uiso  ? C
   C522       1.0     0.467045     0.255893     0.502857    Uiso  ? C
   C523       1.0     0.472016     0.277371     0.498911    Uiso  ? C
   H309       1.0     0.465647     0.285019     0.484607    Uiso  ? H
   C524       1.0     0.485784     0.288536     0.512354    Uiso  ? C
   H310       1.0     0.488860     0.304736     0.510914    Uiso  ? H
   C525       1.0     0.494697     0.278106     0.529561    Uiso  ? C
   H311       1.0     0.504566     0.288075     0.539043    Uiso  ? H
   C526       1.0     0.491996     0.256073     0.531784    Uiso  ? C
   C527       1.0     0.479203     0.245486     0.518042    Uiso  ? C
   H312       1.0     0.476028     0.228551     0.521034    Uiso  ? H
   C528       1.0     0.503254     0.245275     0.547812    Uiso  ? C
   C529       1.0     0.412268     0.207929     0.435021    Uiso  ? C
   C530       1.0     0.400305     0.196542     0.418686    Uiso  ? C
   C531       1.0     0.382583     0.206052     0.408600    Uiso  ? C
   H313       1.0     0.378033     0.221726     0.411527    Uiso  ? H
   C532       1.0     0.370786     0.193916     0.394250    Uiso  ? C
   H314       1.0     0.357416     0.201411     0.386808    Uiso  ? H
   C533       1.0     0.375972     0.172566     0.390274    Uiso  ? C
   H315       1.0     0.365684     0.163362     0.379646    Uiso  ? H
   C534       1.0     0.391644     0.163354     0.400797    Uiso  ? C
   C535       1.0     0.403585     0.174742     0.415434    Uiso  ? C
   H316       1.0     0.414137     0.166233     0.425743    Uiso  ? H
   C536       1.0     0.397155     0.141751     0.396136    Uiso  ? C
   C537       1.0     0.555967     0.229050     0.551786    Uiso  ? C
   C538       1.0     0.575226     0.231249     0.540425    Uiso  ? C
   C539       1.0     0.588157     0.248248     0.545227    Uiso  ? C
   H317       1.0     0.584279     0.260535     0.556955    Uiso  ? H
   C540       1.0     0.608204     0.248988     0.537103    Uiso  ? C
   H318       1.0     0.617675     0.263349     0.538795    Uiso  ? H
   C541       1.0     0.616093     0.232503     0.523976    Uiso  ? C
   H319       1.0     0.633062     0.231959     0.520917    Uiso  ? H
   C542       1.0     0.603211     0.215886     0.520066    Uiso  ? C
   C543       1.0     0.583184     0.215194     0.529144    Uiso  ? C
   H320       1.0     0.574025     0.200627     0.527200    Uiso  ? H
   C544       1.0     0.612132     0.198571     0.508098    Uiso  ? C
   C545       1.0     0.544818     0.204917     0.601824    Uiso  ? C
   C546       1.0     0.555465     0.192738     0.619126    Uiso  ? C
   C547       1.0     0.561311     0.202148     0.637881    Uiso  ? C
   H321       1.0     0.560000     0.218781     0.641207    Uiso  ? H
   C548       1.0     0.572941     0.190900     0.653051    Uiso  ? C
   H322       1.0     0.578271     0.199251     0.667151    Uiso  ? H
   C549       1.0     0.578440     0.170547     0.648902    Uiso  ? C
   H323       1.0     0.589259     0.162431     0.659689    Uiso  ? H
   C550       1.0     0.570909     0.159496     0.630299    Uiso  ? C
   C551       1.0     0.558615     0.171174     0.617019    Uiso  ? C
   H324       1.0     0.552283     0.163678     0.602695    Uiso  ? H
   C552       1.0     0.577278     0.138062     0.625055    Uiso  ? C
   C553       1.0     0.438827     0.119710     0.365437    Uiso  ? C
   C554       1.0     0.456208     0.129438     0.353472    Uiso  ? C
   C555       1.0     0.453848     0.131732     0.332042    Uiso  ? C
   H325       1.0     0.439947     0.126701     0.324641    Uiso  ? H
   C556       1.0     0.467918     0.142976     0.319893    Uiso  ? C
   H326       1.0     0.465122     0.146142     0.303652    Uiso  ? H
   C557       1.0     0.485751     0.150806     0.328593    Uiso  ? C
   H327       1.0     0.495695     0.161330     0.320573    Uiso  ? H
   C558       1.0     0.489461     0.147285     0.350938    Uiso  ? C
   C559       1.0     0.474345     0.137035     0.362738    Uiso  ? C
   H328       1.0     0.477052     0.135002     0.379376    Uiso  ? H
   C560       1.0     0.508416     0.155632     0.361959    Uiso  ? C
   C561       1.0     0.381130     0.887770     0.409497    Uiso  ? C
   C562       1.0     0.363812     0.878868     0.422665    Uiso  ? C
   C563       1.0     0.343617     0.874706     0.414978    Uiso  ? C
   H329       1.0     0.339893     0.879259     0.399168    Uiso  ? H
   C564       1.0     0.329653     0.864375     0.427495    Uiso  ? C
   H330       1.0     0.314767     0.860861     0.421673    Uiso  ? H
   C565       1.0     0.334643     0.856408     0.446727    Uiso  ? C
   H331       1.0     0.323030     0.847165     0.454005    Uiso  ? H
   C566       1.0     0.354287     0.860240     0.454845    Uiso  ? C
   C567       1.0     0.368296     0.873129     0.443495    Uiso  ? C
   H332       1.0     0.382955     0.876418     0.450831    Uiso  ? H
   C568       1.0     0.359842     0.849739     0.474297    Uiso  ? C
   C569       1.0     0.380353     0.813915     0.540679    Uiso  ? C
   C570       1.0     0.387773     0.804827     0.560193    Uiso  ? C
   C571       1.0     0.376865     0.789271     0.570372    Uiso  ? C
   H333       1.0     0.362396     0.783553     0.562675    Uiso  ? H
   C572       1.0     0.382810     0.780318     0.589483    Uiso  ? C
   H334       1.0     0.375537     0.765573     0.594636    Uiso  ? H
   C573       1.0     0.398593     0.789357     0.600681    Uiso  ? C
   H335       1.0     0.404222     0.783154     0.615117    Uiso  ? H
   C574       1.0     0.410845     0.805465     0.592123    Uiso  ? C
   C575       1.0     0.406511     0.812401     0.571141    Uiso  ? C
   H336       1.0     0.415428     0.824089     0.562247    Uiso  ? H
   C576       1.0     0.428907     0.814092     0.602500    Uiso  ? C
   O271       1.0     0.400250     0.172714     0.554186    Uiso  ? O
   O272       1.0     0.375289     0.186877     0.574837    Uiso  ? O
   O273       1.0     0.429080     0.171847     0.584202    Uiso  ? O
   O274       1.0     0.403962     0.184895     0.604274    Uiso  ? O
   O275       1.0     0.415290     0.133094     0.591960    Uiso  ? O
   O276       1.0     0.391107     0.148478     0.613950    Uiso  ? O
   O277       1.0     0.390804     0.134321     0.562778    Uiso  ? O
   O278       1.0     0.364110     0.148920     0.581098    Uiso  ? O
   O279       1.0     0.460358     0.212774     0.449683    Uiso  ? O
   O280       1.0     0.444101     0.241540     0.438216    Uiso  ? O
   O281       1.0     0.453792     0.224244     0.487572    Uiso  ? O
   O282       1.0     0.440890     0.255053     0.475621    Uiso  ? O
   O283       1.0     0.418456     0.204781     0.485343    Uiso  ? O
   O284       1.0     0.405247     0.237421     0.478960    Uiso  ? O
   O285       1.0     0.425977     0.198148     0.446329    Uiso  ? O
   O286       1.0     0.406819     0.226335     0.440346    Uiso  ? O
   O287       1.0     0.544840     0.212144     0.550437    Uiso  ? O
   O288       1.0     0.550579     0.244266     0.564724    Uiso  ? O
   O289       1.0     0.534363     0.195880     0.586092    Uiso  ? O
   O290       1.0     0.544042     0.225471     0.602753    Uiso  ? O
   O291       1.0     0.496845     0.206659     0.579825    Uiso  ? O
   O292       1.0     0.504643     0.236238     0.597974    Uiso  ? O
   O293       1.0     0.506399     0.224807     0.546663    Uiso  ? O
   O294       1.0     0.511531     0.255141     0.563818    Uiso  ? O
   O295       1.0     0.440670     0.115969     0.385396    Uiso  ? O
   O296       1.0     0.420157     0.116345     0.356286    Uiso  ? O
   O297       1.0     0.409500     0.131227     0.408407    Uiso  ? O
   O298       1.0     0.391833     0.133532     0.378282    Uiso  ? O
   O299       1.0     0.399406     0.888666     0.417755    Uiso  ? O
   O300       1.0     0.377991     0.894095     0.390508    Uiso  ? O
   O301       1.0     0.425383     0.873480     0.393477    Uiso  ? O
   O302       1.0     0.403805     0.874721     0.365199    Uiso  ? O
   O303       1.0     0.378697     0.851571     0.481962    Uiso  ? O
   O304       1.0     0.345572     0.839748     0.484913    Uiso  ? O
   O305       1.0     0.377768     0.863008     0.524275    Uiso  ? O
   O306       1.0     0.345222     0.849045     0.523488    Uiso  ? O
   O307       1.0     0.393753     0.827577     0.531468    Uiso  ? O
   O308       1.0     0.361006     0.811962     0.533425    Uiso  ? O
   O309       1.0     0.398259     0.817918     0.494152    Uiso  ? O
   O310       1.0     0.364830     0.803261     0.492463    Uiso  ? O
   O311       1.0     0.550981     0.142032     0.385697    Uiso  ? O
   O312       1.0     0.560443     0.160258     0.356338    Uiso  ? O
   O313       1.0     0.556756     0.176098     0.407868    Uiso  ? O
   O314       1.0     0.563996     0.193483     0.377934    Uiso  ? O
   O315       1.0     0.520768     0.185432     0.403190    Uiso  ? O
   O316       1.0     0.524520     0.200246     0.372001    Uiso  ? O
   O317       1.0     0.510954     0.153423     0.382368    Uiso  ? O
   O318       1.0     0.522747     0.165146     0.350648    Uiso  ? O
   O319       1.0     0.431171     0.142035     0.553089    Uiso  ? O
   O320       1.0     0.452373     0.180575     0.477257    Uiso  ? O
   O321       1.0     0.513164     0.180406     0.553086    Uiso  ? O
   O322       1.0     0.438389     0.103261     0.425982    Uiso  ? O
   O323       1.0     0.414874     0.854669     0.503272    Uiso  ? O
   O324       1.0     0.527611     0.147466     0.421301    Uiso  ? O
   Zn61       1.0     0.412082     0.152400     0.571590    Uiso  ? Zn
   Zn62       1.0     0.381105     0.168522     0.594938    Uiso  ? Zn
   Zn63       1.0     0.440923     0.206544     0.469090    Uiso  ? Zn
   Zn64       1.0     0.423140     0.242785     0.457471    Uiso  ? Zn
   Zn65       1.0     0.519978     0.207386     0.564566    Uiso  ? Zn
   Zn66       1.0     0.529294     0.243292     0.583752    Uiso  ? Zn
   Zn67       1.0     0.421074     0.105199     0.403235    Uiso  ? Zn
   Zn68       1.0     0.396282     0.106277     0.370052    Uiso  ? Zn
   Zn69       1.0     0.389307     0.842179     0.506720    Uiso  ? Zn
   Zn70       1.0     0.351382     0.823984     0.508718    Uiso  ? Zn
   Zn71       1.0     0.534455     0.162102     0.397334    Uiso  ? Zn
   Zn72       1.0     0.542960     0.182471     0.360859    Uiso  ? Zn
   H337       1.0     0.449380     0.179464     0.492039    Uiso  ? H
   H338       1.0     0.467332     0.183806     0.478659    Uiso  ? H
   H339       1.0     0.531088     0.822714     0.536650    Uiso  ? H
   H340       1.0     0.534333     0.814993     0.514065    Uiso  ? H
   H341       1.0     0.456074     0.859884     0.570440    Uiso  ? H
   H342       1.0     0.478918     0.850063     0.568052    Uiso  ? H
   H343       1.0     0.542729     0.108499     0.575621    Uiso  ? H
   H344       1.0     0.553378     0.882168     0.573121    Uiso  ? H
   H345       1.0     0.512976     0.151539     0.426378    Uiso  ? H
   H346       1.0     0.537190     0.153285     0.431317    Uiso  ? H
   H347       1.0     0.567226     0.877387     0.442719    Uiso  ? H
   H348       1.0     0.574674     0.862239     0.459427    Uiso  ? H
   H349       1.0     0.572236     0.152146     0.488975    Uiso  ? H
   H350       1.0     0.583461     0.139124     0.473239    Uiso  ? H
   H351       1.0     0.443748     0.884210     0.427308    Uiso  ? H
   H352       1.0     0.450315     0.113055     0.422734    Uiso  ? H
   H353       1.0     0.484179     0.817769     0.463728    Uiso  ? H
   H354       1.0     0.468525     0.827844     0.449697    Uiso  ? H
   H355       1.0     0.417495     0.860808     0.517306    Uiso  ? H
   H356       1.0     0.425198     0.843765     0.499923    Uiso  ? H
   H357       1.0     0.505436     0.183922     0.540391    Uiso  ? H
   H358       1.0     0.526391     0.173102     0.548866    Uiso  ? H
   H359       1.0     0.430541     0.150737     0.540403    Uiso  ? H
   H360       1.0     0.428170     0.126848     0.549074    Uiso  ? H
   C577       1.0     0.437908     0.377040     0.180094    Uiso  ? C
   C578       1.0     0.454084     0.371292     0.195351    Uiso  ? C
   C579       1.0     0.450331     0.353983     0.208030    Uiso  ? C
   H361       1.0     0.437989     0.342093     0.205131    Uiso  ? H
   C580       1.0     0.464055     0.350115     0.225166    Uiso  ? C
   H362       1.0     0.462616     0.336355     0.234287    Uiso  ? H
   C581       1.0     0.481560     0.363694     0.229087    Uiso  ? C
   H363       1.0     0.491247     0.359850     0.242556    Uiso  ? H
   C582       1.0     0.486550     0.379547     0.214573    Uiso  ? C
   C583       1.0     0.472734     0.383232     0.197805    Uiso  ? C
   H364       1.0     0.475671     0.396057     0.187713    Uiso  ? H
   C584       1.0     0.504973     0.393145     0.217383    Uiso  ? C
   C585       1.0     0.399321     0.414966     0.178004    Uiso  ? C
   C586       1.0     0.391335     0.430365     0.193531    Uiso  ? C
   C587       1.0     0.371940     0.426937     0.202776    Uiso  ? C
   H365       1.0     0.363130     0.412895     0.199831    Uiso  ? H
   C588       1.0     0.363352     0.440940     0.216255    Uiso  ? C
   H366       1.0     0.347832     0.435910     0.221245    Uiso  ? H
   C589       1.0     0.373793     0.459364     0.221230    Uiso  ? C
   H367       1.0     0.366988     0.471416     0.231242    Uiso  ? H
   C590       1.0     0.392881     0.464521     0.210482    Uiso  ? C
   C591       1.0     0.401064     0.449345     0.196115    Uiso  ? C
   H368       1.0     0.415179     0.450957     0.189939    Uiso  ? H
   C592       1.0     0.404767     0.484521     0.214373    Uiso  ? C
   C593       1.0     0.385395     0.398997     0.129651    Uiso  ? C
   C594       1.0     0.368848     0.406802     0.115090    Uiso  ? C
   C595       1.0     0.348627     0.399335     0.116603    Uiso  ? C
   H369       1.0     0.345276     0.388112     0.129299    Uiso  ? H
   C596       1.0     0.333227     0.406034     0.102439    Uiso  ? C
   H370       1.0     0.317233     0.398561     0.101985    Uiso  ? H
   C597       1.0     0.337952     0.419578     0.886690    Uiso  ? C
   H371       1.0     0.325715     0.422991     0.875499    Uiso  ? H
   C598       1.0     0.358208     0.428625     0.886160    Uiso  ? C
   C599       1.0     0.372755     0.423634     0.101665    Uiso  ? C
   H372       1.0     0.387713     0.431318     0.102066    Uiso  ? H
   C600       1.0     0.364819     0.442729     0.868433    Uiso  ? C
   C601       1.0     0.424751     0.364323     0.128240    Uiso  ? C
   C602       1.0     0.429640     0.350880     0.109934    Uiso  ? C
   C603       1.0     0.419091     0.332542     0.108284    Uiso  ? C
   H373       1.0     0.409481     0.327136     0.121493    Uiso  ? H
   C604       1.0     0.421986     0.318365     0.890843    Uiso  ? C
   H374       1.0     0.414866     0.303333     0.888730    Uiso  ? H
   C605       1.0     0.436046     0.325893     0.875437    Uiso  ? C
   H375       1.0     0.437790     0.315713     0.861645    Uiso  ? H
   C606       1.0     0.447198     0.344713     0.876349    Uiso  ? C
   C607       1.0     0.443597     0.356565     0.894743    Uiso  ? C
   H376       1.0     0.449966     0.372277     0.896620    Uiso  ? H
   C608       1.0     0.462091     0.352028     0.859277    Uiso  ? C
   C609       1.0     0.564408     0.442365     0.229285    Uiso  ? C
   C610       1.0     0.583118     0.456131     0.230690    Uiso  ? C
   C611       1.0     0.594182     0.455653     0.249394    Uiso  ? C
   H377       1.0     0.592606     0.443516     0.260999    Uiso  ? H
   C612       1.0     0.613207     0.466307     0.251105    Uiso  ? C
   H378       1.0     0.624556     0.463257     0.264025    Uiso  ? H
   C613       1.0     0.619013     0.481777     0.235193    Uiso  ? C
   H379       1.0     0.634063     0.489224     0.238699    Uiso  ? H
   C614       1.0     0.607079     0.483388     0.216545    Uiso  ? C
   C615       1.0     0.588893     0.470772     0.214759    Uiso  ? C
   H380       1.0     0.581711     0.469422     0.199150    Uiso  ? H
   C616       1.0     0.614974     0.495107     0.198407    Uiso  ? C
   C617       1.0     0.510331     0.440752     0.242167    Uiso  ? C
   C618       1.0     0.493637     0.452858     0.253340    Uiso  ? C
   C619       1.0     0.488842     0.447612     0.274079    Uiso  ? C
   H381       1.0     0.498470     0.436265     0.282251    Uiso  ? H
   C620       1.0     0.468207     0.451850     0.280987    Uiso  ? C
   H382       1.0     0.461573     0.444024     0.295143    Uiso  ? H
   C621       1.0     0.457667     0.467079     0.270608    Uiso  ? C
   H383       1.0     0.442234     0.469382     0.275754    Uiso  ? H
   C622       1.0     0.464454     0.476353     0.252217    Uiso  ? C
   C623       1.0     0.482709     0.468889     0.242156    Uiso  ? C
   H384       1.0     0.485970     0.473838     0.226034    Uiso  ? H
   C624       1.0     0.451824     0.492328     0.241366    Uiso  ? C
   C625       1.0     0.555887     0.394330     0.201900    Uiso  ? C
   C626       1.0     0.570385     0.380751     0.189175    Uiso  ? C
   C627       1.0     0.582163     0.365116     0.198820    Uiso  ? C
   H385       1.0     0.578354     0.361398     0.215736    Uiso  ? H
   C628       1.0     0.596550     0.353415     0.186859    Uiso  ? C
   H386       1.0     0.605964     0.341294     0.193964    Uiso  ? H
   C629       1.0     0.599467     0.357682     0.165304    Uiso  ? C
   H387       1.0     0.611724     0.348867     0.156501    Uiso  ? H
   C630       1.0     0.588774     0.373744     0.155939    Uiso  ? C
   C631       1.0     0.573531     0.385170     0.167905    Uiso  ? C
   H388       1.0     0.564620     0.398098     0.160759    Uiso  ? H
   C632       1.0     0.594160     0.379741     0.134262    Uiso  ? C
   C633       1.0     0.451005     0.546393     0.227028    Uiso  ? C
   C634       1.0     0.464033     0.565427     0.231519    Uiso  ? C
   C635       1.0     0.462502     0.575894     0.250816    Uiso  ? C
   H389       1.0     0.452365     0.568932     0.262059    Uiso  ? H
   C636       1.0     0.474373     0.594814     0.254743    Uiso  ? C
   H390       1.0     0.475619     0.601178     0.270932    Uiso  ? H
   C637       1.0     0.487615     0.602374     0.239492    Uiso  ? C
   H391       1.0     0.498116     0.614702     0.244500    Uiso  ? H
   C638       1.0     0.490260     0.592357     0.220198    Uiso  ? C
   C639       1.0     0.479393     0.573346     0.217109    Uiso  ? C
   H392       1.0     0.480818     0.565787     0.202351    Uiso  ? H
   C640       1.0     0.502217     0.601639     0.203420    Uiso  ? C
   C641       1.0     0.404451     0.540102     0.204179    Uiso  ? C
   C642       1.0     0.392551     0.556534     0.192802    Uiso  ? C
   C643       1.0     0.379238     0.570222     0.204585    Uiso  ? C
   H393       1.0     0.377054     0.569356     0.221287    Uiso  ? H
   C644       1.0     0.369305     0.586626     0.195377    Uiso  ? C
   H394       1.0     0.363066     0.599094     0.204274    Uiso  ? H
   C645       1.0     0.371704     0.589619     0.173641    Uiso  ? C
   H395       1.0     0.364785     0.601376     0.164474    Uiso  ? H
   C646       1.0     0.384064     0.576294     0.160657    Uiso  ? C
   C647       1.0     0.392580     0.557912     0.170909    Uiso  ? C
   H396       1.0     0.400191     0.545830     0.160882    Uiso  ? H
   C648       1.0     0.388270     0.581587     0.138274    Uiso  ? C
   C649       1.0     0.627452     0.419000     0.113758    Uiso  ? C
   C650       1.0     0.641847     0.433986     0.123745    Uiso  ? C
   C651       1.0     0.663892     0.430171     0.124999    Uiso  ? C
   H397       1.0     0.672437     0.416752     0.118408    Uiso  ? H
   C652       1.0     0.676952     0.446304     0.132688    Uiso  ? C
   H398       1.0     0.693268     0.443725     0.131593    Uiso  ? H
   C653       1.0     0.668367     0.464608     0.140651    Uiso  ? C
   H399       1.0     0.677736     0.477551     0.143508    Uiso  ? H
   C654       1.0     0.646439     0.467417     0.141734    Uiso  ? C
   C655       1.0     0.634068     0.452711     0.132996    Uiso  ? C
   H400       1.0     0.617072     0.454867     0.131482    Uiso  ? H
   C656       1.0     0.637471     0.485816     0.150775    Uiso  ? C
   C657       1.0     0.579538     0.365285     0.883349    Uiso  ? C
   C658       1.0     0.566360     0.350750     0.871381    Uiso  ? C
   C659       1.0     0.572182     0.329045     0.868724    Uiso  ? C
   H401       1.0     0.586887     0.323921     0.874014    Uiso  ? H
   C660       1.0     0.556544     0.315719     0.860075    Uiso  ? C
   H402       1.0     0.560358     0.299225     0.858081    Uiso  ? H
   C661       1.0     0.537133     0.322067     0.852967    Uiso  ? C
   H403       1.0     0.525965     0.312084     0.845010    Uiso  ? H
   C662       1.0     0.532433     0.343493     0.854027    Uiso  ? C
   C663       1.0     0.546514     0.357321     0.863913    Uiso  ? C
   H404       1.0     0.542923     0.373174     0.866575    Uiso  ? H
   C664       1.0     0.513580     0.352101     0.844389    Uiso  ? C
   C665       1.0     0.450026     0.383671     0.815048    Uiso  ? C
   C666       1.0     0.430086     0.391699     0.806090    Uiso  ? C
   C667       1.0     0.421357     0.381328     0.788885    Uiso  ? C
   H405       1.0     0.430119     0.370332     0.780185    Uiso  ? H
   C668       1.0     0.400144     0.385986     0.782349    Uiso  ? C
   H406       1.0     0.392560     0.377481     0.769715    Uiso  ? H
   C669       1.0     0.390084     0.403591     0.791069    Uiso  ? C
   H407       1.0     0.373604     0.406312     0.785437    Uiso  ? H
   C670       1.0     0.399939     0.415452     0.807083    Uiso  ? C
   C671       1.0     0.419360     0.408450     0.814832    Uiso  ? C
   H408       1.0     0.426099     0.417179     0.826929    Uiso  ? H
   C672       1.0     0.389695     0.433698     0.817871    Uiso  ? C
   O325       1.0     0.442343     0.391956     0.167005    Uiso  ? O
   O326       1.0     0.420378     0.366203     0.178330    Uiso  ? O
   O327       1.0     0.412378     0.421738     0.164254    Uiso  ? O
   O328       1.0     0.394332     0.395004     0.179793    Uiso  ? O
   O329       1.0     0.403130     0.407847     0.129764    Uiso  ? O
   O330       1.0     0.380625     0.385343     0.144126    Uiso  ? O
   O331       1.0     0.431217     0.383735     0.128785    Uiso  ? O
   O332       1.0     0.410756     0.358442     0.141340    Uiso  ? O
   O333       1.0     0.553111     0.444013     0.211585    Uiso  ? O
   O334       1.0     0.558830     0.429194     0.243620    Uiso  ? O
   O335       1.0     0.512310     0.443542     0.222572    Uiso  ? O
   O336       1.0     0.520810     0.425739     0.251283    Uiso  ? O
   O337       1.0     0.506830     0.409300     0.205225    Uiso  ? O
   O338       1.0     0.518033     0.389471     0.232546    Uiso  ? O
   O339       1.0     0.542860     0.407230     0.192288    Uiso  ? O
   O340       1.0     0.558333     0.395832     0.221786    Uiso  ? O
   O341       1.0     0.452464     0.536710     0.209292    Uiso  ? O
   O342       1.0     0.438222     0.538706     0.240659    Uiso  ? O
   O343       1.0     0.418911     0.529570     0.193176    Uiso  ? O
   O344       1.0     0.401082     0.536988     0.224588    Uiso  ? O
   O345       1.0     0.418551     0.489778     0.200763    Uiso  ? O
   O346       1.0     0.401538     0.495715     0.230738    Uiso  ? O
   O347       1.0     0.455251     0.495582     0.221543    Uiso  ? O
   O348       1.0     0.435547     0.501086     0.250733    Uiso  ? O
   O349       1.0     0.608332     0.423914     0.110279    Uiso  ? O
   O350       1.0     0.634453     0.400519     0.110315    Uiso  ? O
   O351       1.0     0.583132     0.394086     0.124837    Uiso  ? O
   O352       1.0     0.611053     0.372837     0.125244    Uiso  ? O
   O353       1.0     0.574302     0.384885     0.886618    Uiso  ? O
   O354       1.0     0.598810     0.360175     0.887829    Uiso  ? O
   O355       1.0     0.599013     0.413710     0.874140    Uiso  ? O
   O356       1.0     0.624299     0.389918     0.871693    Uiso  ? O
   O357       1.0     0.506572     0.370585     0.849430    Uiso  ? O
   O358       1.0     0.503101     0.341662     0.830745    Uiso  ? O
   O359       1.0     0.468961     0.371223     0.860602    Uiso  ? O
   O360       1.0     0.464968     0.340313     0.842383    Uiso  ? O
   O361       1.0     0.459516     0.393606     0.829542    Uiso  ? O
   O362       1.0     0.455859     0.365041     0.810436    Uiso  ? O
   O363       1.0     0.497097     0.393312     0.815896    Uiso  ? O
   O364       1.0     0.495878     0.361437     0.799923    Uiso  ? O
   O365       1.0     0.614738     0.531613     0.137557    Uiso  ? O
   O366       1.0     0.646349     0.537631     0.152673    Uiso  ? O
   O367       1.0     0.596455     0.536640     0.173703    Uiso  ? O
   O368       1.0     0.627862     0.542963     0.188471    Uiso  ? O
   O369       1.0     0.603027     0.495981     0.180773    Uiso  ? O
   O370       1.0     0.632297     0.505927     0.198001    Uiso  ? O
   O371       1.0     0.618644     0.492515     0.144746    Uiso  ? O
   O372       1.0     0.649058     0.496722     0.163636    Uiso  ? O
   O373       1.0     0.442706     0.421357     0.137563    Uiso  ? O
   O374       1.0     0.519034     0.442000     0.181322    Uiso  ? O
   O375       1.0     0.452619     0.505814     0.181692    Uiso  ? O
   O376       1.0     0.565743     0.424208     0.102103    Uiso  ? O
   O377       1.0     0.491507     0.408137     0.855244    Uiso  ? O
   O378       1.0     0.580841     0.506294     0.146397    Uiso  ? O
   Zn73       1.0     0.424239     0.401681     0.147458    Uiso  ? Zn
   Zn74       1.0     0.399149     0.373763     0.162765    Uiso  ? Zn
   Zn75       1.0     0.528601     0.428218     0.204284    Uiso  ? Zn
   Zn76       1.0     0.539738     0.408508     0.240273    Uiso  ? Zn
   Zn77       1.0     0.438183     0.511562     0.203908    Uiso  ? Zn
   Zn78       1.0     0.416776     0.518825     0.239580    Uiso  ? Zn
   Zn79       1.0     0.587840     0.405948     0.900000    Uiso  ? Zn
   Zn80       1.0     0.619962     0.378028     0.898461    Uiso  ? Zn
   Zn81       1.0     0.484197     0.384769     0.840604    Uiso  ? Zn
   Zn82       1.0     0.478274     0.349499     0.819201    Uiso  ? Zn
   Zn83       1.0     0.605654     0.513323     0.157806    Uiso  ? Zn
   Zn84       1.0     0.642573     0.521301     0.175969    Uiso  ? Zn
   C673       1.0     0.563702     0.604321     0.820868    Uiso  ? C
   C674       1.0     0.548276     0.610671     0.804291    Uiso  ? C
   C675       1.0     0.554052     0.624574     0.788890    Uiso  ? C
   H409       1.0     0.570090     0.629627     0.789267    Uiso  ? H
   C676       1.0     0.539788     0.628240     0.772723    Uiso  ? C
   H410       1.0     0.544394     0.637766     0.759846    Uiso  ? H
   C677       1.0     0.519900     0.619555     0.771345    Uiso  ? C
   H411       1.0     0.510103     0.622172     0.758104    Uiso  ? H
   C678       1.0     0.515078     0.603558     0.785357    Uiso  ? C
   C679       1.0     0.528629     0.600654     0.803468    Uiso  ? C
   H412       1.0     0.524129     0.589663     0.815902    Uiso  ? H
   C680       1.0     0.496848     0.589785     0.782420    Uiso  ? C
   C681       1.0     0.603031     0.565419     0.821867    Uiso  ? C
   C682       1.0     0.610756     0.550724     0.806907    Uiso  ? C
   C683       1.0     0.627996     0.555378     0.793746    Uiso  ? C
   H413       1.0     0.636966     0.569434     0.797401    Uiso  ? H
   C684       1.0     0.635099     0.539886     0.778996    Uiso  ? C
   H414       1.0     0.648502     0.542672     0.769663    Uiso  ? H
   C685       1.0     0.623919     0.522191     0.775464    Uiso  ? C
   H415       1.0     0.628222     0.511703     0.762708    Uiso  ? H
   C686       1.0     0.606722     0.518046     0.788402    Uiso  ? C
   C687       1.0     0.600060     0.532224     0.803773    Uiso  ? C
   H416       1.0     0.587832     0.526525     0.815248    Uiso  ? H
   C688       1.0     0.594464     0.498965     0.785942    Uiso  ? C
   C689       1.0     0.617738     0.580836     0.872346    Uiso  ? C
   C690       1.0     0.632355     0.574903     0.889817    Uiso  ? C
   C691       1.0     0.652558     0.582320     0.889846    Uiso  ? C
   H417       1.0     0.659421     0.591055     0.876887    Uiso  ? H
   C692       1.0     0.665919     0.577035     0.105427    Uiso  ? C
   H418       1.0     0.682320     0.580911     0.105193    Uiso  ? H
   C693       1.0     0.659948     0.562663     0.120148    Uiso  ? C
   H419       1.0     0.670927     0.557255     0.131605    Uiso  ? H
   C694       1.0     0.638829     0.554918     0.120457    Uiso  ? C
   C695       1.0     0.624796     0.561908     0.104950    Uiso  ? C
   H420       1.0     0.609014     0.556005     0.105588    Uiso  ? H
   C696       1.0     0.633201     0.540457     0.137255    Uiso  ? C
   C697       1.0     0.575592     0.615870     0.873957    Uiso  ? C
   C698       1.0     0.567619     0.629982     0.889978    Uiso  ? C
   C699       1.0     0.572808     0.651040     0.888589    Uiso  ? C
   H421       1.0     0.583911     0.655593     0.877472    Uiso  ? H
   C700       1.0     0.565870     0.666621     0.103759    Uiso  ? C
   H422       1.0     0.570595     0.682152     0.103308    Uiso  ? H
   C701       1.0     0.554798     0.659092     0.121559    Uiso  ? C
   H423       1.0     0.552193     0.669371     0.133613    Uiso  ? H
   C702       1.0     0.548782     0.638226     0.121722    Uiso  ? C
   C703       1.0     0.554091     0.624124     0.105473    Uiso  ? C
   H424       1.0     0.546928     0.608255     0.105815    Uiso  ? H
   C704       1.0     0.538484     0.629449     0.140288    Uiso  ? C
   C705       1.0     0.439803     0.538896     0.777715    Uiso  ? C
   C706       1.0     0.421359     0.526145     0.775527    Uiso  ? C
   C707       1.0     0.409728     0.526247     0.757264    Uiso  ? C
   H425       1.0     0.414153     0.535900     0.744312    Uiso  ? H
   C708       1.0     0.391400     0.514834     0.755354    Uiso  ? C
   H426       1.0     0.382979     0.516059     0.740998    Uiso  ? H
   C709       1.0     0.385090     0.501610     0.771335    Uiso  ? C
   H427       1.0     0.370493     0.493238     0.770283    Uiso  ? H
   C710       1.0     0.395982     0.500628     0.790606    Uiso  ? C
   C711       1.0     0.414765     0.513149     0.792342    Uiso  ? C
   H428       1.0     0.422910     0.511452     0.807064    Uiso  ? H
   C712       1.0     0.388628     0.486441     0.807139    Uiso  ? C
   C713       1.0     0.492711     0.542111     0.758881    Uiso  ? C
   C714       1.0     0.508164     0.529296     0.746746    Uiso  ? C
   C715       1.0     0.511193     0.532046     0.725065    Uiso  ? C
   H429       1.0     0.500531     0.543404     0.716788    Uiso  ? H
   C716       1.0     0.528459     0.524404     0.714480    Uiso  ? C
   H430       1.0     0.528848     0.525441     0.697002    Uiso  ? H
   C717       1.0     0.541682     0.510993     0.725677    Uiso  ? C
   H431       1.0     0.554165     0.504001     0.717013    Uiso  ? H
   C718       1.0     0.535919     0.504430     0.746334    Uiso  ? C
   C719       1.0     0.521322     0.515311     0.757192    Uiso  ? C
   H432       1.0     0.519551     0.511423     0.774024    Uiso  ? H
   C720       1.0     0.549204     0.488843     0.756665    Uiso  ? C
   C721       1.0     0.445854     0.588415     0.800811    Uiso  ? C
   C722       1.0     0.430951     0.601210     0.812086    Uiso  ? C
   C723       1.0     0.419125     0.616497     0.803177    Uiso  ? C
   H433       1.0     0.420003     0.619805     0.786366    Uiso  ? H
   C724       1.0     0.404727     0.628292     0.814344    Uiso  ? C
   H434       1.0     0.393944     0.638636     0.806079    Uiso  ? H
   C725       1.0     0.401306     0.624396     0.835115    Uiso  ? C
   H435       1.0     0.388040     0.631700     0.842660    Uiso  ? H
   C726       1.0     0.412872     0.607904     0.845605    Uiso  ? C
   C727       1.0     0.427840     0.596922     0.833870    Uiso  ? C
   H436       1.0     0.436897     0.584802     0.841454    Uiso  ? H
   C728       1.0     0.408288     0.602790     0.867564    Uiso  ? C
   C729       1.0     0.550627     0.436079     0.772372    Uiso  ? C
   C730       1.0     0.540408     0.415366     0.770322    Uiso  ? C
   C731       1.0     0.541648     0.404202     0.751564    Uiso  ? C
   H437       1.0     0.549869     0.409942     0.738875    Uiso  ? H
   C732       1.0     0.529295     0.386139     0.748317    Uiso  ? C
   H438       1.0     0.528118     0.379222     0.733526    Uiso  ? H
   C733       1.0     0.517912     0.376971     0.765211    Uiso  ? C
   H439       1.0     0.510860     0.362094     0.761809    Uiso  ? H
   C734       1.0     0.516594     0.388277     0.783994    Uiso  ? C
   C735       1.0     0.527465     0.406561     0.786112    Uiso  ? C
   H440       1.0     0.524994     0.415692     0.800137    Uiso  ? H
   C736       1.0     0.503178     0.380598     0.800802    Uiso  ? C
   C737       1.0     0.596093     0.446611     0.799574    Uiso  ? C
   C738       1.0     0.609605     0.431110     0.810355    Uiso  ? C
   C739       1.0     0.625998     0.421718     0.800515    Uiso  ? C
   H441       1.0     0.629684     0.426082     0.784400    Uiso  ? H
   C740       1.0     0.638380     0.406642     0.810093    Uiso  ? C
   H442       1.0     0.649907     0.398767     0.800500    Uiso  ? H
   C741       1.0     0.633571     0.400586     0.830111    Uiso  ? C
   H443       1.0     0.641807     0.387725     0.837828    Uiso  ? H
   C742       1.0     0.618324     0.411150     0.841632    Uiso  ? C
   C743       1.0     0.606252     0.426773     0.831807    Uiso  ? C
   H444       1.0     0.593519     0.433572     0.840010    Uiso  ? H
   C744       1.0     0.614017     0.404876     0.863824    Uiso  ? C
   C745       1.0     0.373718     0.566575     0.886731    Uiso  ? C
   C746       1.0     0.359367     0.549404     0.878615    Uiso  ? C
   C747       1.0     0.338047     0.551276     0.880770    Uiso  ? C
   H445       1.0     0.330831     0.564243     0.889161    Uiso  ? H
   C748       1.0     0.324536     0.536457     0.871657    Uiso  ? C
   H446       1.0     0.307461     0.539999     0.871960    Uiso  ? H
   C749       1.0     0.332847     0.519485     0.860429    Uiso  ? C
   H447       1.0     0.322495     0.511194     0.850004    Uiso  ? H
   C750       1.0     0.354474     0.515808     0.860059    Uiso  ? C
   C751       1.0     0.367406     0.531383     0.868701    Uiso  ? C
   H448       1.0     0.384178     0.528463     0.869392    Uiso  ? H
   C752       1.0     0.362889     0.495711     0.852744    Uiso  ? C
   C753       1.0     0.421474     0.618096     0.120125    Uiso  ? C
   C754       1.0     0.435565     0.633495     0.130006    Uiso  ? C
   C755       1.0     0.429212     0.654248     0.134049    Uiso  ? C
   H449       1.0     0.414225     0.659261     0.128385    Uiso  ? H
   C756       1.0     0.441322     0.667976     0.146151    Uiso  ? C
   H450       1.0     0.437598     0.684507     0.148245    Uiso  ? H
   C757       1.0     0.461099     0.660382     0.154038    Uiso  ? C
   H451       1.0     0.470743     0.670270     0.163419    Uiso  ? H
   C758       1.0     0.466851     0.639900     0.150140    Uiso  ? C
   C759       1.0     0.455023     0.626501     0.137569    Uiso  ? C
   H452       1.0     0.459818     0.610008     0.135110    Uiso  ? H
   C760       1.0     0.486478     0.631543     0.158624    Uiso  ? C
   C761       1.0     0.553076     0.602929     0.185596    Uiso  ? C
   C762       1.0     0.572120     0.593841     0.194085    Uiso  ? C
   C763       1.0     0.581437     0.602446     0.212031    Uiso  ? C
   H453       1.0     0.572345     0.614478     0.220087    Uiso  ? H
   C764       1.0     0.601018     0.594800     0.219599    Uiso  ? C
   H454       1.0     0.606310     0.601819     0.233369    Uiso  ? H
   C765       1.0     0.611452     0.578396     0.209188    Uiso  ? C
   H455       1.0     0.625610     0.572726     0.214056    Uiso  ? H
   C766       1.0     0.600502     0.567751     0.193258    Uiso  ? C
   C767       1.0     0.581736     0.575518     0.184704    Uiso  ? C
   H456       1.0     0.574608     0.569206     0.170293    Uiso  ? H
   C768       1.0     0.608498     0.548023     0.185152    Uiso  ? C
   O379       1.0     0.558871     0.590448     0.834880    Uiso  ? O
   O380       1.0     0.582316     0.612936     0.821489    Uiso  ? O
   O381       1.0     0.586672     0.561048     0.833099    Uiso  ? O
   O382       1.0     0.611870     0.584186     0.823940    Uiso  ? O
   O383       1.0     0.599389     0.572476     0.869905    Uiso  ? O
   O384       1.0     0.622627     0.596051     0.859254    Uiso  ? O
   O385       1.0     0.569277     0.596740     0.874961    Uiso  ? O
   O386       1.0     0.590114     0.621912     0.860916    Uiso  ? O
   O387       1.0     0.452675     0.537154     0.793504    Uiso  ? O
   O388       1.0     0.442363     0.553642     0.763696    Uiso  ? O
   O389       1.0     0.490335     0.538635     0.778965    Uiso  ? O
   O390       1.0     0.481621     0.556077     0.748988    Uiso  ? O
   O391       1.0     0.493345     0.575532     0.797024    Uiso  ? O
   O392       1.0     0.484691     0.592225     0.766850    Uiso  ? O
   O393       1.0     0.457081     0.573291     0.810941    Uiso  ? O
   O394       1.0     0.446566     0.589953     0.780192    Uiso  ? O
   O395       1.0     0.548247     0.446297     0.790643    Uiso  ? O
   O396       1.0     0.563890     0.442483     0.757853    Uiso  ? O
   O397       1.0     0.580387     0.455025     0.808792    Uiso  ? O
   O398       1.0     0.599933     0.449490     0.779975    Uiso  ? O
   O399       1.0     0.579852     0.493397     0.799334    Uiso  ? O
   O400       1.0     0.597085     0.487911     0.769224    Uiso  ? O
   O401       1.0     0.544501     0.484074     0.775982    Uiso  ? O
   O402       1.0     0.566536     0.482670     0.747196    Uiso  ? O
   O403       1.0     0.393775     0.562105     0.889421    Uiso  ? O
   O404       1.0     0.366754     0.584059     0.893882    Uiso  ? O
   O405       1.0     0.419787     0.589269     0.877283    Uiso  ? O
   O406       1.0     0.391755     0.611191     0.876658    Uiso  ? O
   O407       1.0     0.427256     0.598494     0.116152    Uiso  ? O
   O408       1.0     0.402509     0.623792     0.114611    Uiso  ? O
   O409       1.0     0.402625     0.570920     0.128448    Uiso  ? O
   O410       1.0     0.379513     0.597357     0.129296    Uiso  ? O
   O411       1.0     0.491425     0.611613     0.155066    Uiso  ? O
   O412       1.0     0.499036     0.642243     0.171801    Uiso  ? O
   O413       1.0     0.528471     0.611793     0.139290    Uiso  ? O
   O414       1.0     0.537386     0.640690     0.157718    Uiso  ? O
   O415       1.0     0.541764     0.593470     0.171180    Uiso  ? O
   O416       1.0     0.548128     0.621878     0.191161    Uiso  ? O
   O417       1.0     0.504335     0.591310     0.185600    Uiso  ? O
   O418       1.0     0.510314     0.620531     0.204783    Uiso  ? O
   O419       1.0     0.382358     0.453047     0.868868    Uiso  ? O
   O420       1.0     0.353627     0.443610     0.851984    Uiso  ? O
   O421       1.0     0.400243     0.444224     0.831965    Uiso  ? O
   O422       1.0     0.370374     0.438728     0.813365    Uiso  ? O
   O423       1.0     0.401078     0.482749     0.823183    Uiso  ? O
   O424       1.0     0.369877     0.477752     0.806942    Uiso  ? O
   O425       1.0     0.381631     0.489916     0.857523    Uiso  ? O
   O426       1.0     0.350944     0.484592     0.840423    Uiso  ? O
   O427       1.0     0.556137     0.558652     0.862742    Uiso  ? O
   O428       1.0     0.484838     0.543833     0.821470    Uiso  ? O
   O429       1.0     0.545186     0.478085     0.817593    Uiso  ? O
   O430       1.0     0.434121     0.557555     0.102115    Uiso  ? O
   O431       1.0     0.511456     0.573577     0.150406    Uiso  ? O
   O432       1.0     0.420501     0.468626     0.860233    Uiso  ? O
   Zn85       1.0     0.575931     0.577642     0.853969    Uiso  ? Zn
   Zn86       1.0     0.603540     0.605863     0.839580    Uiso  ? Zn
   Zn87       1.0     0.474529     0.555660     0.797628    Uiso  ? Zn
   Zn88       1.0     0.462980     0.574670     0.761781    Uiso  ? Zn
   Zn89       1.0     0.561580     0.471190     0.795886    Uiso  ? Zn
   Zn90       1.0     0.582995     0.463227     0.761299    Uiso  ? Zn
   Zn91       1.0     0.413610     0.578343     0.102782    Uiso  ? Zn
   Zn92       1.0     0.382303     0.606186     0.103266    Uiso  ? Zn
   Zn93       1.0     0.515307     0.598583     0.162069    Uiso  ? Zn
   Zn94       1.0     0.523968     0.634416     0.183622    Uiso  ? Zn
   Zn95       1.0     0.394266     0.466993     0.846598    Uiso  ? Zn
   Zn96       1.0     0.357837     0.460980     0.828142    Uiso  ? Zn
   H457       1.0     0.486175     0.528713     0.820729    Uiso  ? H
   H458       1.0     0.472371     0.546127     0.831611    Uiso  ? H
   H459       1.0     0.503436     0.443305     0.183386    Uiso  ? H
   H460       1.0     0.524545     0.455607     0.184551    Uiso  ? H
   H461       1.0     0.572946     0.518494     0.141135    Uiso  ? H
   H462       1.0     0.570564     0.500259     0.156380    Uiso  ? H
   H463       1.0     0.560990     0.425032     0.116313    Uiso  ? H
   H464       1.0     0.554215     0.419025     0.892648    Uiso  ? H
   H465       1.0     0.430503     0.475652     0.850769    Uiso  ? H
   H466       1.0     0.419235     0.478431     0.872501    Uiso  ? H
   H467       1.0     0.435824     0.432822     0.130059    Uiso  ? H
   H468       1.0     0.451131     0.415119     0.126091    Uiso  ? H
   H469       1.0     0.484519     0.418828     0.847580    Uiso  ? H
   H470       1.0     0.505866     0.411494     0.849579    Uiso  ? H
   H471       1.0     0.441592     0.560363     0.888185    Uiso  ? H
   H472       1.0     0.444883     0.559407     0.112973    Uiso  ? H
   H473       1.0     0.467180     0.510794     0.184790    Uiso  ? H
   H474       1.0     0.447348     0.514820     0.170789    Uiso  ? H
   H475       1.0     0.499333     0.568514     0.157854    Uiso  ? H
   H476       1.0     0.505979     0.576250     0.136123    Uiso  ? H
   H477       1.0     0.530268     0.473605     0.814247    Uiso  ? H
   H478       1.0     0.543020     0.493213     0.815045    Uiso  ? H
   H479       1.0     0.562830     0.550472     0.874386    Uiso  ? H
   H480       1.0     0.546420     0.567287     0.870315    Uiso  ? H
   C769       1.0     0.534904     0.387697     0.279691    Uiso  ? C
   C770       1.0     0.547011     0.378028     0.295125    Uiso  ? C
   C771       1.0     0.566843     0.392289     0.271935    Uiso  ? C
   N1         1.0     0.547648     0.395037     0.264754    Uiso  ? N
   H481       1.0     0.518239     0.387084     0.279528    Uiso  ? H
   H482       1.0     0.540153     0.368333     0.308054    Uiso  ? H
   H483       1.0     0.580115     0.397490     0.262608    Uiso  ? H
   N2         1.0     0.567675     0.381080     0.289948    Uiso  ? N
   C772       1.0     0.585815     0.374093     0.301348    Uiso  ? C
   H484       1.0     0.599472     0.382645     0.296085    Uiso  ? H
   H485       1.0     0.582313     0.376613     0.317905    Uiso  ? H
   C773       1.0     0.589188     0.351831     0.300452    Uiso  ? C
   C774       1.0     0.579002     0.339001     0.315576    Uiso  ? C
   C775       1.0     0.600882     0.341840     0.284999    Uiso  ? C
   C776       1.0     0.580342     0.318092     0.314716    Uiso  ? C
   H486       1.0     0.569405     0.344569     0.327738    Uiso  ? H
   C777       1.0     0.602806     0.318955     0.283557    Uiso  ? C
   H487       1.0     0.608260     0.351060     0.272301    Uiso  ? H
   C778       1.0     0.592798     0.307938     0.299336    Uiso  ? C
   H488       1.0     0.571149     0.309749     0.326964    Uiso  ? H
   H489       1.0     0.612563     0.312453     0.271053    Uiso  ? H
   C779       1.0     0.593697     0.284093     0.299093    Uiso  ? C
   C780       1.0     0.598771     0.273123     0.316281    Uiso  ? C
   C781       1.0     0.587435     0.274263     0.279864    Uiso  ? C
   C782       1.0     0.596265     0.251057     0.316933    Uiso  ? C
   H490       1.0     0.602878     0.281478     0.330864    Uiso  ? H
   C783       1.0     0.585344     0.251913     0.281011    Uiso  ? C
   H491       1.0     0.580742     0.283081     0.267693    Uiso  ? H
   C784       1.0     0.590250     0.240816     0.298631    Uiso  ? C
   H492       1.0     0.599742     0.242821     0.331582    Uiso  ? H
   H493       1.0     0.580534     0.244244     0.266762    Uiso  ? H
   C785       1.0     0.587053     0.217545     0.297952    Uiso  ? C
   H494       1.0     0.583409     0.212600     0.281516    Uiso  ? H
   H495       1.0     0.600748     0.209998     0.305555    Uiso  ? H
   N3         1.0     0.569295     0.212078     0.311689    Uiso  ? N
   C786       1.0     0.549049     0.216567     0.307534    Uiso  ? C
   C787       1.0     0.569417     0.201109     0.329453    Uiso  ? C
   C788       1.0     0.536929     0.207434     0.323002    Uiso  ? C
   H496       1.0     0.543348     0.224361     0.293317    Uiso  ? H
   H497       1.0     0.584308     0.195759     0.337468    Uiso  ? H
   H498       1.0     0.520515     0.207374     0.323886    Uiso  ? H
   N4         1.0     0.549595     0.198542     0.336912    Uiso  ? N
   C789       1.0     0.447151     0.731189     0.389731    Uiso  ? C
   C790       1.0     0.448128     0.711545     0.379693    Uiso  ? C
   C791       1.0     0.477060     0.719673     0.394359    Uiso  ? C
   N5         1.0     0.464779     0.736131     0.399132    Uiso  ? N
   H499       1.0     0.433736     0.741016     0.388880    Uiso  ? H
   H500       1.0     0.436074     0.704637     0.370650    Uiso  ? H
   H501       1.0     0.493060     0.717992     0.400274    Uiso  ? H
   N6         1.0     0.467095     0.704202     0.383184    Uiso  ? N
   C792       1.0     0.475793     0.685527     0.374325    Uiso  ? C
   H502       1.0     0.489703     0.682016     0.382715    Uiso  ? H
   H503       1.0     0.464211     0.672286     0.375256    Uiso  ? H
   C793       1.0     0.480767     0.688178     0.351903    Uiso  ? C
   C794       1.0     0.501646     0.692619     0.344975    Uiso  ? C
   C795       1.0     0.464881     0.687107     0.336421    Uiso  ? C
   C796       1.0     0.506029     0.697220     0.323943    Uiso  ? C
   H504       1.0     0.514387     0.692925     0.357553    Uiso  ? H
   C797       1.0     0.469681     0.691732     0.315130    Uiso  ? C
   H505       1.0     0.450051     0.683047     0.342385    Uiso  ? H
   C798       1.0     0.490923     0.697010     0.308876    Uiso  ? C
   H506       1.0     0.522279     0.701014     0.320238    Uiso  ? H
   H507       1.0     0.457530     0.689558     0.303472    Uiso  ? H
   C799       1.0     0.496066     0.701022     0.286995    Uiso  ? C
   C800       1.0     0.506711     0.718879     0.280122    Uiso  ? C
   C801       1.0     0.487849     0.686447     0.271866    Uiso  ? C
   C802       1.0     0.511933     0.721462     0.258750    Uiso  ? C
   H508       1.0     0.510497     0.731657     0.291652    Uiso  ? H
   C803       1.0     0.492048     0.690011     0.250867    Uiso  ? C
   H509       1.0     0.477662     0.673811     0.275433    Uiso  ? H
   C804       1.0     0.505219     0.706418     0.243970    Uiso  ? C
   H510       1.0     0.517651     0.736471     0.254061    Uiso  ? H
   H511       1.0     0.486636     0.677729     0.239329    Uiso  ? H
   C805       1.0     0.511470     0.709219     0.221592    Uiso  ? C
   H512       1.0     0.495833     0.710746     0.214343    Uiso  ? H
   H513       1.0     0.520986     0.722939     0.217946    Uiso  ? H
   N7         1.0     0.522087     0.690973     0.212993    Uiso  ? N
   C806       1.0     0.543040     0.686980     0.214861    Uiso  ? C
   C807       1.0     0.514115     0.674149     0.203829    Uiso  ? C
   C808       1.0     0.546891     0.667732     0.205046    Uiso  ? C
   H514       1.0     0.553998     0.696683     0.223007    Uiso  ? H
   H515       1.0     0.498037     0.671157     0.201601    Uiso  ? H
   H516       1.0     0.561283     0.660963     0.203047    Uiso  ? H
   N8         1.0     0.528890     0.659691     0.198210    Uiso  ? N
   C809       1.0     0.426281     0.804612     0.670174    Uiso  ? C
   C810       1.0     0.425883     0.793533     0.687932    Uiso  ? C
   C811       1.0     0.458190     0.797290     0.676823    Uiso  ? C
   N9         1.0     0.446101     0.807543     0.663212    Uiso  ? N
   H517       1.0     0.412530     0.811672     0.661684    Uiso  ? H
   H518       1.0     0.411572     0.788189     0.694815    Uiso  ? H
   H519       1.0     0.474833     0.797659     0.676565    Uiso  ? H
   N10        1.0     0.446020     0.787691     0.691822    Uiso  ? N
   C812       1.0     0.454392     0.777537     0.710972    Uiso  ? C
   H520       1.0     0.470263     0.784469     0.713114    Uiso  ? H
   H521       1.0     0.445692     0.782367     0.724849    Uiso  ? H
   C813       1.0     0.454514     0.754700     0.709866    Uiso  ? C
   C814       1.0     0.436686     0.743262     0.703963    Uiso  ? C
   C815       1.0     0.473195     0.743639     0.714240    Uiso  ? C
   C816       1.0     0.438177     0.721329     0.701447    Uiso  ? C
   H522       1.0     0.422904     0.751973     0.699454    Uiso  ? H
   C817       1.0     0.474157     0.721659     0.711951    Uiso  ? C
   H523       1.0     0.486805     0.751268     0.719696    Uiso  ? H
   C818       1.0     0.457086     0.710153     0.705419    Uiso  ? C
   H524       1.0     0.424563     0.713719     0.695375    Uiso  ? H
   H525       1.0     0.488931     0.714144     0.714086    Uiso  ? H
   C819       1.0     0.458127     0.687434     0.703977    Uiso  ? C
   C820       1.0     0.444553     0.677180     0.689926    Uiso  ? C
   C821       1.0     0.473611     0.674895     0.713971    Uiso  ? C
   C822       1.0     0.447722     0.655820     0.684539    Uiso  ? C
   H526       1.0     0.432516     0.684016     0.680715    Uiso  ? H
   C823       1.0     0.474681     0.653272     0.709273    Uiso  ? C
   H527       1.0     0.484925     0.680066     0.725702    Uiso  ? H
   C824       1.0     0.462618     0.643725     0.693711    Uiso  ? C
   H528       1.0     0.436964     0.649333     0.673566    Uiso  ? H
   H529       1.0     0.486627     0.643722     0.717123    Uiso  ? H
   C825       1.0     0.465455     0.620226     0.689102    Uiso  ? C
   H530       1.0     0.456299     0.617894     0.674403    Uiso  ? H
   H531       1.0     0.482457     0.615626     0.686706    Uiso  ? H
   N11        1.0     0.456390     0.607467     0.706273    Uiso  ? N
   C826       1.0     0.436308     0.600707     0.708339    Uiso  ? C
   C827       1.0     0.466288     0.601650     0.723704    Uiso  ? C
   C828       1.0     0.434647     0.588679     0.726735    Uiso  ? C
   H532       1.0     0.423626     0.602493     0.698165    Uiso  ? H
   H533       1.0     0.482803     0.604221     0.726764    Uiso  ? H
   H534       1.0     0.420225     0.581105     0.732066    Uiso  ? H
   N12        1.0     0.453490     0.589147     0.736470    Uiso  ? N
   C829       1.0     0.454519     0.319384     0.795046    Uiso  ? C
   C830       1.0     0.456529     0.301224     0.786711    Uiso  ? C
   C831       1.0     0.486672     0.310315     0.795249    Uiso  ? C
   N13        1.0     0.473212     0.325300     0.802569    Uiso  ? N
   H535       1.0     0.440846     0.328033     0.797631    Uiso  ? H
   H536       1.0     0.444161     0.292435     0.779593    Uiso  ? H
   H537       1.0     0.502486     0.310042     0.799808    Uiso  ? H
   N14        1.0     0.476348     0.295047     0.785210    Uiso  ? N
   C832       1.0     0.484021     0.276509     0.773708    Uiso  ? C
   H538       1.0     0.498664     0.270128     0.780956    Uiso  ? H
   H539       1.0     0.472157     0.263651     0.775661    Uiso  ? H
   C833       1.0     0.486915     0.280044     0.749997    Uiso  ? C
   C834       1.0     0.470812     0.288094     0.737161    Uiso  ? C
   C835       1.0     0.506213     0.276814     0.741395    Uiso  ? C
   C836       1.0     0.475732     0.294057     0.716504    Uiso  ? C
   H540       1.0     0.457023     0.293704     0.743653    Uiso  ? H
   C837       1.0     0.509631     0.278946     0.719510    Uiso  ? C
   H541       1.0     0.519705     0.271035     0.749828    Uiso  ? H
   C838       1.0     0.494880     0.288625     0.707431    Uiso  ? C
   H542       1.0     0.465042     0.304341     0.708202    Uiso  ? H
   H543       1.0     0.524212     0.273412     0.713325    Uiso  ? H
   C839       1.0     0.500470     0.294952     0.685894    Uiso  ? C
   C840       1.0     0.487914     0.289016     0.669048    Uiso  ? C
   C841       1.0     0.518527     0.307057     0.682334    Uiso  ? C
   C842       1.0     0.494405     0.293449     0.648814    Uiso  ? C
   H544       1.0     0.474051     0.279293     0.671026    Uiso  ? H
   C843       1.0     0.524007     0.312883     0.661842    Uiso  ? C
   H545       1.0     0.529874     0.310217     0.694890    Uiso  ? H
   C844       1.0     0.510452     0.307469     0.645153    Uiso  ? C
   H546       1.0     0.485870     0.285677     0.635559    Uiso  ? H
   H547       1.0     0.538193     0.321895     0.659906    Uiso  ? H
   C845       1.0     0.515530     0.315097     0.623331    Uiso  ? C
   H548       1.0     0.499821     0.317001     0.614241    Uiso  ? H
   H549       1.0     0.523957     0.330709     0.623248    Uiso  ? H
   N15        1.0     0.528130     0.299276     0.612641    Uiso  ? N
   C846       1.0     0.549268     0.298261     0.610871    Uiso  ? C
   C847       1.0     0.519927     0.281784     0.605320    Uiso  ? C
   C848       1.0     0.553309     0.278237     0.602498    Uiso  ? C
   H550       1.0     0.560066     0.307375     0.619928    Uiso  ? H
   H551       1.0     0.504638     0.278476     0.603169    Uiso  ? H
   H552       1.0     0.568774     0.271496     0.602334    Uiso  ? H
   N16        1.0     0.534555     0.268783     0.598127    Uiso  ? N
   C849       1.0     0.685556     0.196232     0.472259    Uiso  ? C
   C850       1.0     0.704273     0.203253     0.480260    Uiso  ? C
   C851       1.0     0.684741     0.193559     0.505103    Uiso  ? C
   N17        1.0     0.673837     0.190417     0.488072    Uiso  ? N
   H553       1.0     0.682012     0.193995     0.455997    Uiso  ? H
   H554       1.0     0.717306     0.209869     0.471946    Uiso  ? H
   H555       1.0     0.679196     0.192388     0.521582    Uiso  ? H
   N18        1.0     0.703874     0.201858     0.501234    Uiso  ? N
   C852       1.0     0.718377     0.211336     0.515908    Uiso  ? C
   H556       1.0     0.716850     0.203206     0.532533    Uiso  ? H
   H557       1.0     0.734025     0.209607     0.509913    Uiso  ? H
   C853       1.0     0.714345     0.233826     0.518404    Uiso  ? C
   C854       1.0     0.699291     0.241367     0.532652    Uiso  ? C
   C855       1.0     0.724721     0.247469     0.504589    Uiso  ? C
   C856       1.0     0.696423     0.262605     0.535800    Uiso  ? C
   H558       1.0     0.691788     0.230803     0.542197    Uiso  ? H
   C857       1.0     0.721272     0.269302     0.507138    Uiso  ? C
   H559       1.0     0.734613     0.241795     0.491208    Uiso  ? H
   C858       1.0     0.706368     0.277306     0.522240    Uiso  ? C
   H560       1.0     0.683163     0.267367     0.544647    Uiso  ? H
   H561       1.0     0.730162     0.279468     0.498658    Uiso  ? H
   C859       1.0     0.703534     0.300338     0.523668    Uiso  ? C
   C860       1.0     0.683243     0.307749     0.526582    Uiso  ? C
   C861       1.0     0.719846     0.315053     0.520506    Uiso  ? C
   C862       1.0     0.679031     0.329267     0.524869    Uiso  ? C
   H562       1.0     0.671272     0.296247     0.529307    Uiso  ? H
   C863       1.0     0.715379     0.336381     0.519261    Uiso  ? C
   H563       1.0     0.735021     0.308632     0.518860    Uiso  ? H
   C864       1.0     0.695526     0.343815     0.521211    Uiso  ? C
   H564       1.0     0.662450     0.335333     0.526263    Uiso  ? H
   H565       1.0     0.728693     0.346411     0.517520    Uiso  ? H
   C865       1.0     0.691368     0.367215     0.519351    Uiso  ? C
   H566       1.0     0.690318     0.372826     0.502230    Uiso  ? H
   H567       1.0     0.675831     0.370275     0.526604    Uiso  ? H
   N19        1.0     0.707283     0.380015     0.529588    Uiso  ? N
   C866       1.0     0.707673     0.386078     0.549656    Uiso  ? C
   C867       1.0     0.724078     0.389200     0.521091    Uiso  ? C
   C868       1.0     0.724192     0.398408     0.553432    Uiso  ? C
   H568       1.0     0.696875     0.381141     0.560973    Uiso  ? H
   H569       1.0     0.726755     0.391825     0.505092    Uiso  ? H
   H570       1.0     0.727780     0.406348     0.567134    Uiso  ? H
   N20        1.0     0.735415     0.400148     0.535949    Uiso  ? N
   C869       1.0     0.595695     0.731877     0.572205    Uiso  ? C
   C870       1.0     0.603618     0.712017     0.573020    Uiso  ? C
   C871       1.0     0.598164     0.720158     0.540812    Uiso  ? C
   N21        1.0     0.590047     0.735867     0.552465    Uiso  ? N
   H571       1.0     0.591967     0.741460     0.585541    Uiso  ? H
   H572       1.0     0.607157     0.703252     0.587327    Uiso  ? H
   H573       1.0     0.598410     0.719548     0.524048    Uiso  ? H
   N22        1.0     0.605481     0.704704     0.553685    Uiso  ? N
   C872       1.0     0.616025     0.685530     0.547720    Uiso  ? C
   H574       1.0     0.612614     0.673985     0.560795    Uiso  ? H
   H575       1.0     0.609760     0.681021     0.532289    Uiso  ? H
   C873       1.0     0.639185     0.690096     0.546681    Uiso  ? C
   C874       1.0     0.646305     0.697756     0.527347    Uiso  ? C
   C875       1.0     0.651802     0.691683     0.564126    Uiso  ? C
   C876       1.0     0.667327     0.701304     0.524832    Uiso  ? C
   H576       1.0     0.637123     0.697264     0.513724    Uiso  ? H
   C877       1.0     0.673050     0.695948     0.562179    Uiso  ? C
   H577       1.0     0.646003     0.688457     0.579557    Uiso  ? H
   C878       1.0     0.680945     0.700601     0.541692    Uiso  ? C
   H578       1.0     0.673291     0.703704     0.509626    Uiso  ? H
   H579       1.0     0.682831     0.697009     0.575275    Uiso  ? H
   C879       1.0     0.703342     0.704052     0.538645    Uiso  ? C
   C880       1.0     0.709614     0.721941     0.527908    Uiso  ? C
   C881       1.0     0.718577     0.689636     0.547068    Uiso  ? C
   C882       1.0     0.731075     0.726226     0.525714    Uiso  ? C
   H580       1.0     0.699066     0.732708     0.521271    Uiso  ? H
   C883       1.0     0.739352     0.692739     0.543703    Uiso  ? C
   H581       1.0     0.715347     0.675591     0.556392    Uiso  ? H
   C884       1.0     0.746656     0.711179     0.533203    Uiso  ? C
   H582       1.0     0.735692     0.739217     0.517181    Uiso  ? H
   H583       1.0     0.750095     0.681079     0.549637    Uiso  ? H
   C885       1.0     0.769230     0.715248     0.528032    Uiso  ? C
   H584       1.0     0.771530     0.731116     0.521041    Uiso  ? H
   H585       1.0     0.778991     0.713589     0.541823    Uiso  ? H
   N23        1.0     0.775369     0.699538     0.513011    Uiso  ? N
   C886       1.0     0.770924     0.696956     0.493274    Uiso  ? C
   C887       1.0     0.788694     0.683624     0.518277    Uiso  ? C
   C888       1.0     0.782942     0.682246     0.484710    Uiso  ? C
   H586       1.0     0.761202     0.707109     0.484489    Uiso  ? H
   H587       1.0     0.794082     0.680031     0.534261    Uiso  ? H
   H588       1.0     0.782688     0.678000     0.468383    Uiso  ? H
   N24        1.0     0.793539     0.672674     0.500661    Uiso  ? N
   C889       1.0     0.198106     0.324451     0.508366    Uiso  ? C
   C890       1.0     0.210812     0.307886     0.501899    Uiso  ? C
   C891       1.0     0.217151     0.334814     0.483326    Uiso  ? C
   N25        1.0     0.201883     0.340804     0.496367    Uiso  ? N
   H589       1.0     0.186434     0.322103     0.520123    Uiso  ? H
   H590       1.0     0.208224     0.291229     0.506214    Uiso  ? H
   H591       1.0     0.224583     0.345060     0.471930    Uiso  ? H
   N26        1.0     0.222796     0.314573     0.486005    Uiso  ? N
   C892       1.0     0.236260     0.302159     0.472440    Uiso  ? C
   H592       1.0     0.236764     0.285708     0.477736    Uiso  ? H
   H593       1.0     0.228961     0.304894     0.457328    Uiso  ? H
   C893       1.0     0.259166     0.309305     0.470677    Uiso  ? C
   C894       1.0     0.268544     0.311380     0.451071    Uiso  ? C
   C895       1.0     0.271737     0.311307     0.489100    Uiso  ? C
   C896       1.0     0.289792     0.316259     0.450196    Uiso  ? C
   H594       1.0     0.259363     0.307852     0.437137    Uiso  ? H
   C897       1.0     0.293110     0.314770     0.487258    Uiso  ? C
   H595       1.0     0.265392     0.309164     0.504714    Uiso  ? H
   C898       1.0     0.302818     0.315794     0.467668    Uiso  ? C
   H596       1.0     0.295861     0.317278     0.434265    Uiso  ? H
   H597       1.0     0.302808     0.315378     0.501609    Uiso  ? H
   C899       1.0     0.326619     0.317622     0.467329    Uiso  ? C
   C900       1.0     0.339502     0.305253     0.479128    Uiso  ? C
   C901       1.0     0.335529     0.332354     0.453795    Uiso  ? C
   C902       1.0     0.361730     0.307367     0.477027    Uiso  ? C
   H598       1.0     0.333113     0.293075     0.489149    Uiso  ? H
   C903       1.0     0.356894     0.333846     0.451302    Uiso  ? C
   H599       1.0     0.325692     0.342476     0.444442    Uiso  ? H
   C904       1.0     0.370035     0.321783     0.462591    Uiso  ? C
   H600       1.0     0.371635     0.299087     0.487123    Uiso  ? H
   H601       1.0     0.363674     0.344338     0.439943    Uiso  ? H
   C905       1.0     0.393827     0.322770     0.459775    Uiso  ? C
   H602       1.0     0.398273     0.336192     0.449378    Uiso  ? H
   H603       1.0     0.402396     0.325662     0.475987    Uiso  ? H
   N27        1.0     0.399839     0.302329     0.450089    Uiso  ? N
   C906       1.0     0.394819     0.294917     0.430795    Uiso  ? C
   C907       1.0     0.410098     0.286340     0.459671    Uiso  ? C
   C908       1.0     0.402226     0.273390     0.429232    Uiso  ? C
   H604       1.0     0.384629     0.302806     0.419842    Uiso  ? H
   H605       1.0     0.414450     0.286727     0.476209    Uiso  ? H
   H606       1.0     0.398603     0.263341     0.417058    Uiso  ? H
   N28        1.0     0.411080     0.268241     0.448043    Uiso  ? N
   C909       1.0     0.268747     0.614100     0.439702    Uiso  ? C
   C910       1.0     0.285878     0.626735     0.442705    Uiso  ? C
   C911       1.0     0.272196     0.619372     0.472204    Uiso  ? C
   N29        1.0     0.260725     0.608626     0.458900    Uiso  ? N
   H607       1.0     0.263021     0.608494     0.424828    Uiso  ? H
   H608       1.0     0.295392     0.633232     0.430777    Uiso  ? H
   H609       1.0     0.270714     0.617038     0.488737    Uiso  ? H
   N30        1.0     0.287704     0.630974     0.463502    Uiso  ? N
   C912       1.0     0.303517     0.642551     0.474738    Uiso  ? C
   H610       1.0     0.302582     0.638214     0.492159    Uiso  ? H
   H611       1.0     0.319593     0.638631     0.469428    Uiso  ? H
   C913       1.0     0.298066     0.666113     0.474467    Uiso  ? C
   C914       1.0     0.313710     0.680810     0.473205    Uiso  ? C
   C915       1.0     0.277335     0.672261     0.477590    Uiso  ? C
   C916       1.0     0.309116     0.701793     0.474924    Uiso  ? C
   H612       1.0     0.329863     0.676240     0.471952    Uiso  ? H
   C917       1.0     0.271726     0.693853     0.478824    Uiso  ? C
   H613       1.0     0.264324     0.661674     0.475371    Uiso  ? H
   C918       1.0     0.287764     0.709246     0.477204    Uiso  ? C
   H614       1.0     0.321345     0.713322     0.476119    Uiso  ? H
   H615       1.0     0.255859     0.697968     0.479461    Uiso  ? H
   C919       1.0     0.282096     0.731447     0.478438    Uiso  ? C
   C920       1.0     0.294084     0.745675     0.467496    Uiso  ? C
   C921       1.0     0.264698     0.738240     0.489719    Uiso  ? C
   C922       1.0     0.289248     0.767048     0.468844    Uiso  ? C
   H616       1.0     0.307375     0.741684     0.457902    Uiso  ? H
   C923       1.0     0.259463     0.759309     0.490866    Uiso  ? C
   H617       1.0     0.254098     0.727065     0.497549    Uiso  ? H
   C924       1.0     0.272854     0.774123     0.481719    Uiso  ? C
   H618       1.0     0.299579     0.777817     0.461938    Uiso  ? H
   H619       1.0     0.246669     0.765544     0.499807    Uiso  ? H
   C925       1.0     0.273304     0.796127     0.487591    Uiso  ? C
   H620       1.0     0.274202     0.804445     0.472420    Uiso  ? H
   H621       1.0     0.258720     0.801284     0.496152    Uiso  ? H
   N31        1.0     0.291654     0.801064     0.500402    Uiso  ? N
   C926       1.0     0.294505     0.797067     0.520697    Uiso  ? C
   C927       1.0     0.308963     0.810223     0.494560    Uiso  ? C
   C928       1.0     0.314179     0.802553     0.526504    Uiso  ? C
   H622       1.0     0.282714     0.789485     0.530989    Uiso  ? H
   H623       1.0     0.310733     0.814703     0.478200    Uiso  ? H
   H624       1.0     0.319719     0.800669     0.542518    Uiso  ? H
   N32        1.0     0.324433     0.811270     0.509479    Uiso  ? N
   C929       1.0     0.680681     0.544665     0.188872    Uiso  ? C
   C930       1.0     0.698518     0.541321     0.199933    Uiso  ? C
   C931       1.0     0.681449     0.512139     0.195745    Uiso  ? C
   N33        1.0     0.669107     0.526852     0.187798    Uiso  ? N
   H625       1.0     0.677110     0.560192     0.181413    Uiso  ? H
   H626       1.0     0.708556     0.553023     0.206391    Uiso  ? H
   H627       1.0     0.677129     0.496655     0.198830    Uiso  ? H
   N34        1.0     0.698644     0.521403     0.204385    Uiso  ? N
   C932       1.0     0.715205     0.510825     0.216407    Uiso  ? C
   H628       1.0     0.716181     0.493931     0.210460    Uiso  ? H
   H629       1.0     0.730038     0.519894     0.215510    Uiso  ? H
   C933       1.0     0.707942     0.509055     0.238601    Uiso  ? C
   C934       1.0     0.707673     0.526658     0.250969    Uiso  ? C
   C935       1.0     0.703373     0.489737     0.248359    Uiso  ? C
   C936       1.0     0.703181     0.525505     0.272831    Uiso  ? C
   H630       1.0     0.709856     0.541771     0.244561    Uiso  ? H
   C937       1.0     0.697980     0.489132     0.269670    Uiso  ? C
   H631       1.0     0.703139     0.475375     0.239644    Uiso  ? H
   C938       1.0     0.699437     0.506778     0.282517    Uiso  ? C
   H632       1.0     0.704689     0.539722     0.282739    Uiso  ? H
   H633       1.0     0.694231     0.473842     0.275562    Uiso  ? H
   C939       1.0     0.694097     0.504188     0.304759    Uiso  ? C
   C940       1.0     0.679985     0.518212     0.314118    Uiso  ? C
   C941       1.0     0.704717     0.489540     0.317525    Uiso  ? C
   C942       1.0     0.677069     0.518048     0.336168    Uiso  ? C
   H634       1.0     0.672767     0.529828     0.303594    Uiso  ? H
   C943       1.0     0.700556     0.488762     0.339121    Uiso  ? C
   H635       1.0     0.715812     0.477823     0.310829    Uiso  ? H
   C944       1.0     0.685664     0.502247     0.347893    Uiso  ? C
   H636       1.0     0.666974     0.530107     0.342016    Uiso  ? H
   H637       1.0     0.709390     0.477278     0.349637    Uiso  ? H
   C945       1.0     0.684985     0.504239     0.371449    Uiso  ? C
   H638       1.0     0.670427     0.512491     0.376564    Uiso  ? H
   H639       1.0     0.684064     0.488760     0.379962    Uiso  ? H
   N35        1.0     0.703187     0.515453     0.378520    Uiso  ? N
   C946       1.0     0.707831     0.535094     0.374311    Uiso  ? C
   C947       1.0     0.721151     0.507092     0.386018    Uiso  ? C
   C948       1.0     0.728000     0.539348     0.380841    Uiso  ? C
   H640       1.0     0.696000     0.546538     0.369651    Uiso  ? H
   H641       1.0     0.722447     0.491172     0.389417    Uiso  ? H
   H642       1.0     0.735220     0.555029     0.384334    Uiso  ? H
   N36        1.0     0.735850     0.521734     0.388014    Uiso  ? N
   C949       1.0     0.398683     0.542996     0.273988    Uiso  ? C
   C950       1.0     0.389459     0.539241     0.292738    Uiso  ? C
   C951       1.0     0.397750     0.509020     0.278989    Uiso  ? C
   N37        1.0     0.403948     0.524673     0.264745    Uiso  ? N
   H643       1.0     0.399531     0.559437     0.266714    Uiso  ? H
   H644       1.0     0.385084     0.550486     0.303344    Uiso  ? H
   H645       1.0     0.400239     0.493150     0.276319    Uiso  ? H
   N38        1.0     0.388461     0.518380     0.296243    Uiso  ? N
   C952       1.0     0.381571     0.508303     0.315107    Uiso  ? C
   H646       1.0     0.394063     0.496766     0.319706    Uiso  ? H
   H647       1.0     0.381216     0.519915     0.328620    Uiso  ? H
   C953       1.0     0.359554     0.499933     0.312162    Uiso  ? C
   C954       1.0     0.343689     0.512546     0.319369    Uiso  ? C
   C955       1.0     0.354682     0.481971     0.301292    Uiso  ? C
   C956       1.0     0.323045     0.505727     0.317751    Uiso  ? C
   H648       1.0     0.347666     0.526322     0.329026    Uiso  ? H
   C957       1.0     0.334195     0.475600     0.299047    Uiso  ? C
   H649       1.0     0.367600     0.472751     0.295104    Uiso  ? H
   C958       1.0     0.317742     0.487196     0.307912    Uiso  ? C
   H650       1.0     0.311884     0.516116     0.321904    Uiso  ? H
   H651       1.0     0.330423     0.462886     0.287971    Uiso  ? H
   C959       1.0     0.295192     0.480414     0.303645    Uiso  ? C
   C960       1.0     0.280413     0.495923     0.296809    Uiso  ? C
   C961       1.0     0.288158     0.459189     0.304146    Uiso  ? C
   C962       1.0     0.260023     0.490498     0.292050    Uiso  ? C
   H652       1.0     0.285199     0.512869     0.297349    Uiso  ? H
   C963       1.0     0.268007     0.453238     0.297170    Uiso  ? C
   H653       1.0     0.298471     0.447143     0.311878    Uiso  ? H
   C964       1.0     0.253820     0.469303     0.291873    Uiso  ? C
   H654       1.0     0.247251     0.501849     0.291125    Uiso  ? H
   H655       1.0     0.263390     0.436820     0.297033    Uiso  ? H
   C965       1.0     0.230236     0.464220     0.287107    Uiso  ? C
   H656       1.0     0.221293     0.476956     0.280029    Uiso  ? H
   H657       1.0     0.230861     0.451217     0.276527    Uiso  ? H
   N39        1.0     0.220641     0.457831     0.306306    Uiso  ? N
   C966       1.0     0.220539     0.438326     0.313539    Uiso  ? C
   C967       1.0     0.211492     0.470362     0.320645    Uiso  ? C
   C968       1.0     0.212089     0.439235     0.333367    Uiso  ? C
   H658       1.0     0.227966     0.423912     0.306878    Uiso  ? H
   H659       1.0     0.208321     0.487127     0.320518    Uiso  ? H
   H660       1.0     0.212055     0.425791     0.343711    Uiso  ? H
   N40        1.0     0.205572     0.459158     0.337554    Uiso  ? N
   C969       1.0     0.266759     0.500933     0.621304    Uiso  ? C
   C970       1.0     0.282804     0.491541     0.631976    Uiso  ? C
   C971       1.0     0.267233     0.467977     0.614097    Uiso  ? C
   N41        1.0     0.256505     0.486018     0.610322    Uiso  ? N
   H661       1.0     0.262170     0.517432     0.622424    Uiso  ? H
   H662       1.0     0.291882     0.499608     0.645131    Uiso  ? H
   H663       1.0     0.264508     0.453368     0.605002    Uiso  ? H
   N42        1.0     0.283649     0.471371     0.626591    Uiso  ? N
   C972       1.0     0.299421     0.456574     0.635624    Uiso  ? C
   H664       1.0     0.296300     0.440696     0.629961    Uiso  ? H
   H665       1.0     0.314345     0.459793     0.628879    Uiso  ? H
   C973       1.0     0.297542     0.457104     0.659199    Uiso  ? C
   C974       1.0     0.314184     0.465996     0.671197    Uiso  ? C
   C975       1.0     0.278500     0.451161     0.669903    Uiso  ? C
   C976       1.0     0.312524     0.467561     0.692574    Uiso  ? C
   H666       1.0     0.327626     0.471532     0.662975    Uiso  ? H
   C977       1.0     0.276232     0.456089     0.690868    Uiso  ? C
   H667       1.0     0.265674     0.443520     0.659967    Uiso  ? H
   C978       1.0     0.293387     0.462326     0.702795    Uiso  ? C
   H668       1.0     0.325956     0.471091     0.701774    Uiso  ? H
   H669       1.0     0.261595     0.453608     0.697820    Uiso  ? H
   C979       1.0     0.291425     0.464787     0.726327    Uiso  ? C
   C980       1.0     0.282126     0.448441     0.737940    Uiso  ? C
   C981       1.0     0.298542     0.481950     0.736665    Uiso  ? C
   C982       1.0     0.278234     0.450748     0.759843    Uiso  ? C
   H670       1.0     0.277743     0.435018     0.729976    Uiso  ? H
   C983       1.0     0.294417     0.485002     0.758039    Uiso  ? C
   H671       1.0     0.304976     0.495731     0.727201    Uiso  ? H
   C984       1.0     0.284601     0.469291     0.770193    Uiso  ? C
   H672       1.0     0.271290     0.437934     0.768487    Uiso  ? H
   H673       1.0     0.297043     0.499725     0.765037    Uiso  ? H
   C985       1.0     0.282770     0.471804     0.793563    Uiso  ? C
   H674       1.0     0.280202     0.489015     0.797705    Uiso  ? H
   H675       1.0     0.268361     0.462625     0.796246    Uiso  ? H
   N43        1.0     0.300270     0.461790     0.803571    Uiso  ? N
   C986       1.0     0.300528     0.442013     0.811327    Uiso  ? C
   C987       1.0     0.319193     0.470268     0.808177    Uiso  ? C
   C988       1.0     0.320397     0.439005     0.818685    Uiso  ? C
   H676       1.0     0.287597     0.431628     0.813842    Uiso  ? H
   H677       1.0     0.323102     0.485336     0.804560    Uiso  ? H
   H678       1.0     0.325204     0.425056     0.827388    Uiso  ? H
   N44        1.0     0.331489     0.456854     0.818072    Uiso  ? N
   C989       1.0     0.595386     0.456466     0.716807    Uiso  ? C
   C990       1.0     0.612735     0.450346     0.705771    Uiso  ? C
   C991       1.0     0.619662     0.449767     0.737491    Uiso  ? C
   N45        1.0     0.599805     0.455765     0.737310    Uiso  ? N
   H679       1.0     0.581199     0.460637     0.710615    Uiso  ? H
   H680       1.0     0.614970     0.448904     0.688564    Uiso  ? H
   H681       1.0     0.628982     0.449024     0.751749    Uiso  ? H
   N46        1.0     0.628671     0.447410     0.718865    Uiso  ? N
   C992       1.0     0.649491     0.440308     0.712425    Uiso  ? C
   H682       1.0     0.654305     0.425927     0.721307    Uiso  ? H
   H683       1.0     0.649350     0.435128     0.695603    Uiso  ? H
   C993       1.0     0.666149     0.456349     0.714513    Uiso  ? C
   C994       1.0     0.665514     0.473645     0.699745    Uiso  ? C
   C995       1.0     0.682661     0.454980     0.729020    Uiso  ? C
   C996       1.0     0.681532     0.488358     0.700233    Uiso  ? C
   H684       1.0     0.652755     0.475596     0.688504    Uiso  ? H
   C997       1.0     0.698949     0.470459     0.729386    Uiso  ? C
   H685       1.0     0.684767     0.441350     0.738711    Uiso  ? H
   C998       1.0     0.697675     0.486883     0.715105    Uiso  ? C
   H686       1.0     0.681810     0.500626     0.688845    Uiso  ? H
   H687       1.0     0.712496     0.467577     0.738774    Uiso  ? H
   C999       1.0     0.715296     0.503343     0.715082    Uiso  ? C
   C1000      1.0     0.711107     0.524445     0.714636    Uiso  ? C
   C1001      1.0     0.735819     0.495725     0.713294    Uiso  ? C
   C1002      1.0     0.728047     0.539043     0.712392    Uiso  ? C
   H688       1.0     0.695339     0.529885     0.715521    Uiso  ? H
   C1003      1.0     0.752468     0.510060     0.710168    Uiso  ? C
   H689       1.0     0.739860     0.480037     0.714107    Uiso  ? H
   C1004      1.0     0.748844     0.531538     0.710236    Uiso  ? C
   H690       1.0     0.724780     0.555092     0.710962    Uiso  ? H
   H691       1.0     0.768537     0.503410     0.709545    Uiso  ? H
   C1005      1.0     0.766358     0.546732     0.708006    Uiso  ? C
   H692       1.0     0.761913     0.560602     0.718046    Uiso  ? H
   H693       1.0     0.780120     0.540378     0.715549    Uiso  ? H
   N47        1.0     0.769164     0.550642     0.685911    Uiso  ? N
   C1006      1.0     0.760676     0.566672     0.674910    Uiso  ? C
   C1007      1.0     0.782536     0.540898     0.672744    Uiso  ? C
   C1008      1.0     0.767370     0.564911     0.654038    Uiso  ? C
   H694       1.0     0.749459     0.577972     0.681868    Uiso  ? H
   H695       1.0     0.790912     0.526408     0.675470    Uiso  ? H
   H696       1.0     0.761901     0.574445     0.640252    Uiso  ? H
   N48        1.0     0.781037     0.548679     0.653168    Uiso  ? N
   C1009      1.0     0.615426     0.646969     0.823888    Uiso  ? C
   C1010      1.0     0.633802     0.657013     0.819803    Uiso  ? C
   C1011      1.0     0.640787     0.626057     0.826150    Uiso  ? C
   N49        1.0     0.620306     0.627542     0.828741    Uiso  ? N
   H697       1.0     0.599955     0.654073     0.823303    Uiso  ? H
   H698       1.0     0.636304     0.673988     0.817171    Uiso  ? H
   H699       1.0     0.649280     0.611126     0.828551    Uiso  ? H
   N50        1.0     0.649718     0.643521     0.820055    Uiso  ? N
   C1012      1.0     0.671605     0.647579     0.817843    Uiso  ? C
   H700       1.0     0.681353     0.635542     0.811659    Uiso  ? H
   H701       1.0     0.672077     0.660059     0.805996    Uiso  ? H
   C1013      1.0     0.680770     0.655484     0.838760    Uiso  ? C
   C1014      1.0     0.679570     0.676767     0.843614    Uiso  ? C
   C1015      1.0     0.692305     0.641850     0.852013    Uiso  ? C
   C1016      1.0     0.688111     0.683583     0.862757    Uiso  ? C
   H702       1.0     0.673527     0.688840     0.834136    Uiso  ? H
   C1017      1.0     0.701733     0.649642     0.870054    Uiso  ? C
   H703       1.0     0.694826     0.625820     0.847841    Uiso  ? H
   C1018      1.0     0.699116     0.670259     0.876705    Uiso  ? C
   H704       1.0     0.687006     0.699460     0.867856    Uiso  ? H
   H705       1.0     0.709618     0.638236     0.880276    Uiso  ? H
   C1019      1.0     0.713000     0.679765     0.893462    Uiso  ? C
   C1020      1.0     0.706323     0.697276     0.105694    Uiso  ? C
   C1021      1.0     0.733135     0.671639     0.896806    Uiso  ? C
   C1022      1.0     0.718776     0.705476     0.121445    Uiso  ? C
   H706       1.0     0.692067     0.706399     0.102095    Uiso  ? H
   C1023      1.0     0.745488     0.681395     0.113056    Uiso  ? C
   H707       1.0     0.739524     0.661355     0.885251    Uiso  ? H
   C1024      1.0     0.738587     0.697425     0.126076    Uiso  ? C
   H708       1.0     0.712628     0.718943     0.129008    Uiso  ? H
   H709       1.0     0.759878     0.672992     0.116623    Uiso  ? H
   C1025      1.0     0.750588     0.703739     0.144706    Uiso  ? C
   H710       1.0     0.741340     0.714532     0.154152    Uiso  ? H
   H711       1.0     0.753599     0.689745     0.155788    Uiso  ? H
   N51        1.0     0.770999     0.714193     0.140414    Uiso  ? N
   C1026      1.0     0.789934     0.704937     0.141891    Uiso  ? C
   C1027      1.0     0.774493     0.733513     0.134392    Uiso  ? C
   C1028      1.0     0.805226     0.718793     0.135952    Uiso  ? C
   H712       1.0     0.792782     0.687875     0.145019    Uiso  ? H
   H713       1.0     0.762612     0.745955     0.135441    Uiso  ? H
   H714       1.0     0.822064     0.717097     0.138171    Uiso  ? H
   N52        1.0     0.795210     0.736737     0.131037    Uiso  ? N
   C1029      1.0     0.660295     0.362119     0.885756    Uiso  ? C
   C1030      1.0     0.675638     0.348254     0.891501    Uiso  ? C
   C1031      1.0     0.646943     0.341963     0.107052    Uiso  ? C
   N53        1.0     0.642594     0.358364     0.896065    Uiso  ? N
   H715       1.0     0.661038     0.374146     0.874018    Uiso  ? H
   H716       1.0     0.691347     0.347664     0.886141    Uiso  ? H
   H717       1.0     0.635885     0.334107     0.116161    Uiso  ? H
   N54        1.0     0.666850     0.335882     0.105300    Uiso  ? N
   C1032      1.0     0.676816     0.316707     0.113548    Uiso  ? C
   H718       1.0     0.692993     0.319934     0.119831    Uiso  ? H
   H719       1.0     0.667737     0.310372     0.126698    Uiso  ? H
   C1033      1.0     0.677387     0.299483     0.895985    Uiso  ? C
   C1034      1.0     0.661277     0.284007     0.895098    Uiso  ? C
   C1035      1.0     0.693357     0.300107     0.881634    Uiso  ? C
   C1036      1.0     0.661329     0.269510     0.879012    Uiso  ? C
   H720       1.0     0.648660     0.286720     0.104973    Uiso  ? H
   C1037      1.0     0.694352     0.283728     0.866722    Uiso  ? C
   H721       1.0     0.705841     0.312483     0.880766    Uiso  ? H
   C1038      1.0     0.678342     0.269652     0.863973    Uiso  ? C
   H722       1.0     0.648213     0.259450     0.878191    Uiso  ? H
   H723       1.0     0.706597     0.282322     0.855604    Uiso  ? H
   C1039      1.0     0.680238     0.252194     0.849568    Uiso  ? C
   C1040      1.0     0.671996     0.252457     0.828993    Uiso  ? C
   C1041      1.0     0.688690     0.233223     0.856301    Uiso  ? C
   C1042      1.0     0.675477     0.236036     0.814773    Uiso  ? C
   H724       1.0     0.665067     0.266569     0.821212    Uiso  ? H
   C1043      1.0     0.690637     0.215372     0.842855    Uiso  ? C
   H725       1.0     0.693670     0.232521     0.872675    Uiso  ? H
   C1044      1.0     0.685388     0.217520     0.821867    Uiso  ? C
   H726       1.0     0.673164     0.239271     0.798260    Uiso  ? H
   H727       1.0     0.695063     0.200637     0.849813    Uiso  ? H
   C1045      1.0     0.688506     0.200012     0.806341    Uiso  ? C
   H728       1.0     0.680283     0.185622     0.811717    Uiso  ? H
   H729       1.0     0.682278     0.205100     0.790429    Uiso  ? H
   N55        1.0     0.711384     0.196014     0.805426    Uiso  ? N
   C1046      1.0     0.724941     0.204646     0.792265    Uiso  ? C
   C1047      1.0     0.722304     0.184643     0.818229    Uiso  ? C
   C1048      1.0     0.744578     0.198523     0.797494    Uiso  ? C
   H730       1.0     0.722858     0.219145     0.783097    Uiso  ? H
   H731       1.0     0.715433     0.175033     0.830673    Uiso  ? H
   H732       1.0     0.758272     0.203104     0.789390    Uiso  ? H
   N56        1.0     0.743220     0.185415     0.813697    Uiso  ? N
   C1049      1.0     0.272737     0.821735     0.182813    Uiso  ? C
   C1050      1.0     0.284775     0.807961     0.194679    Uiso  ? C
   C1051      1.0     0.256732     0.793625     0.184892    Uiso  ? C
   N57        1.0     0.254880     0.812933     0.177182    Uiso  ? N
   H733       1.0     0.277060     0.837543     0.180406    Uiso  ? H
   H734       1.0     0.299574     0.811838     0.200561    Uiso  ? H
   H735       1.0     0.245826     0.781141     0.181233    Uiso  ? H
   N58        1.0     0.274266     0.790187     0.195028    Uiso  ? N
   C1052      1.0     0.280250     0.770127     0.203775    Uiso  ? C
   H736       1.0     0.293659     0.772653     0.215079    Uiso  ? H
   H737       1.0     0.266650     0.764373     0.211418    Uiso  ? H
   C1053      1.0     0.288203     0.757078     0.185967    Uiso  ? C
   C1054      1.0     0.274321     0.742450     0.177045    Uiso  ? C
   C1055      1.0     0.307166     0.760981     0.175703    Uiso  ? C
   C1056      1.0     0.281305     0.729852     0.160799    Uiso  ? C
   H738       1.0     0.259652     0.739001     0.183251    Uiso  ? H
   C1057      1.0     0.314015     0.748848     0.159741    Uiso  ? C
   H739       1.0     0.317440     0.773100     0.181793    Uiso  ? H
   C1058      1.0     0.301096     0.732318     0.152291    Uiso  ? C
   H740       1.0     0.269992     0.718680     0.153907    Uiso  ? H
   H741       1.0     0.330062     0.750664     0.153343    Uiso  ? H
   C1059      1.0     0.310070     0.717296     0.137535    Uiso  ? C
   C1060      1.0     0.299195     0.712429     0.118898    Uiso  ? C
   C1061      1.0     0.329539     0.709349     0.139868    Uiso  ? C
   C1062      1.0     0.307530     0.699435     0.103628    Uiso  ? C
   H742       1.0     0.283009     0.717524     0.117656    Uiso  ? H
   C1063      1.0     0.339541     0.699083     0.123082    Uiso  ? C
   H743       1.0     0.337530     0.711548     0.154808    Uiso  ? H
   C1064      1.0     0.328322     0.693189     0.105102    Uiso  ? C
   H744       1.0     0.298615     0.693130     0.891410    Uiso  ? H
   H745       1.0     0.356450     0.696762     0.123915    Uiso  ? H
   C1065      1.0     0.339416     0.678733     0.889831    Uiso  ? C
   H746       1.0     0.330406     0.677627     0.874924    Uiso  ? H
   H747       1.0     0.352776     0.687240     0.884378    Uiso  ? H
   N59        1.0     0.344086     0.657203     0.897496    Uiso  ? N
   C1066      1.0     0.331511     0.644163     0.106300    Uiso  ? C
   C1067      1.0     0.361752     0.646595     0.894279    Uiso  ? C
   C1068      1.0     0.342126     0.625411     0.110258    Uiso  ? C
   H748       1.0     0.316048     0.648281     0.111882    Uiso  ? H
   H749       1.0     0.374711     0.653659     0.886829    Uiso  ? H
   H750       1.0     0.335187     0.611741     0.116611    Uiso  ? H
   N60        1.0     0.361190     0.627716     0.101829    Uiso  ? N
   C1069      1.0     0.198714     0.287512     0.871943    Uiso  ? C
   C1070      1.0     0.215112     0.300559     0.866918    Uiso  ? C
   C1071      1.0     0.222596     0.269278     0.858281    Uiso  ? C
   N61        1.0     0.203241     0.267921     0.866245    Uiso  ? N
   H751       1.0     0.184331     0.292276     0.878865    Uiso  ? H
   H752       1.0     0.216285     0.317640     0.869236    Uiso  ? H
   H753       1.0     0.231115     0.256128     0.851844    Uiso  ? H
   N62        1.0     0.230383     0.289278     0.858082    Uiso  ? N
   C1072      1.0     0.251017     0.296921     0.851082    Uiso  ? C
   H754       1.0     0.257982     0.285433     0.838873    Uiso  ? H
   H755       1.0     0.247695     0.312865     0.842270    Uiso  ? H
   C1073      1.0     0.266668     0.299921     0.868726    Uiso  ? C
   C1074      1.0     0.265200     0.317278     0.883396    Uiso  ? C
   C1075      1.0     0.280200     0.282623     0.872445    Uiso  ? C
   C1076      1.0     0.280890     0.319457     0.898829    Uiso  ? C
   H756       1.0     0.255143     0.330954     0.881551    Uiso  ? H
   C1077      1.0     0.293318     0.284252     0.890181    Uiso  ? C
   H757       1.0     0.282809     0.269460     0.862293    Uiso  ? H
   C1078      1.0     0.295113     0.303238     0.102172    Uiso  ? C
   H758       1.0     0.282002     0.334056     0.107926    Uiso  ? H
   H759       1.0     0.304832     0.271387     0.893503    Uiso  ? H
   C1079      1.0     0.311201     0.304605     0.119764    Uiso  ? C
   C1080      1.0     0.307455     0.315319     0.137485    Uiso  ? C
   C1081      1.0     0.331095     0.294698     0.117846    Uiso  ? C
   C1082      1.0     0.320923     0.315181     0.154254    Uiso  ? C
   H760       1.0     0.293479     0.323868     0.139886    Uiso  ? H
   C1083      1.0     0.344188     0.293164     0.135256    Uiso  ? C
   H761       1.0     0.335578     0.286824     0.104105    Uiso  ? H
   C1084      1.0     0.338786     0.303476     0.154187    Uiso  ? C
   H762       1.0     0.317207     0.323333     0.168646    Uiso  ? H
   H763       1.0     0.359134     0.285500     0.133868    Uiso  ? H
   C1085      1.0     0.352307     0.303401     0.172917    Uiso  ? C
   H764       1.0     0.341937     0.298274     0.185177    Uiso  ? H
   H765       1.0     0.366025     0.293188     0.171752    Uiso  ? H
   N63        1.0     0.360505     0.325214     0.175755    Uiso  ? N
   C1086      1.0     0.351468     0.339345     0.187998    Uiso  ? C
   C1087      1.0     0.377530     0.334628     0.167576    Uiso  ? C
   C1088      1.0     0.363877     0.357615     0.187555    Uiso  ? C
   H766       1.0     0.337484     0.338236     0.198492    Uiso  ? H
   H767       1.0     0.386287     0.327130     0.156185    Uiso  ? H
   H768       1.0     0.361653     0.371614     0.196363    Uiso  ? H
   N64        1.0     0.379241     0.354676     0.173644    Uiso  ? N
   C1089      1.0     0.615781     0.892633     0.673232    Uiso  ? C
   C1090      1.0     0.633689     0.895345     0.685864    Uiso  ? C
   C1091      1.0     0.641125     0.108204     0.654002    Uiso  ? C
   N65        1.0     0.620394     0.104313     0.653797    Uiso  ? N
   H769       1.0     0.600964     0.885968     0.678013    Uiso  ? H
   H770       1.0     0.634914     0.892006     0.702344    Uiso  ? H
   H771       1.0     0.649120     0.111096     0.638424    Uiso  ? H
   N66        1.0     0.650013     0.105462     0.672875    Uiso  ? N
   C1092      1.0     0.671736     0.110807     0.678515    Uiso  ? C
   H772       1.0     0.680456     0.116650     0.664650    Uiso  ? H
   H773       1.0     0.670721     0.124791     0.690190    Uiso  ? H
   C1093      1.0     0.681527     0.888213     0.687316    Uiso  ? C
   C1094      1.0     0.693108     0.888978     0.705827    Uiso  ? C
   C1095      1.0     0.680956     0.869524     0.675402    Uiso  ? C
   C1096      1.0     0.705313     0.871880     0.711308    Uiso  ? C
   H774       1.0     0.696842     0.108373     0.714056    Uiso  ? H
   C1097      1.0     0.693227     0.853052     0.681809    Uiso  ? C
   H775       1.0     0.672934     0.869720     0.661120    Uiso  ? H
   C1098      1.0     0.704527     0.853380     0.700087    Uiso  ? C
   H776       1.0     0.714340     0.873445     0.725192    Uiso  ? H
   H777       1.0     0.694150     0.839991     0.670715    Uiso  ? H
   C1099      1.0     0.718852     0.836481     0.706897    Uiso  ? C
   C1100      1.0     0.735070     0.829779     0.692988    Uiso  ? C
   C1101      1.0     0.716089     0.826781     0.726523    Uiso  ? C
   C1102      1.0     0.747666     0.813111     0.698132    Uiso  ? C
   H778       1.0     0.735766     0.836792     0.677534    Uiso  ? H
   C1103      1.0     0.728854     0.810291     0.731482    Uiso  ? C
   H779       1.0     0.704796     0.831007     0.738018    Uiso  ? H
   C1104      1.0     0.744513     0.803614     0.717703    Uiso  ? C
   H780       1.0     0.759591     0.806940     0.686501    Uiso  ? H
   H781       1.0     0.726618     0.803114     0.746620    Uiso  ? H
   C1105      1.0     0.758668     0.786005     0.724776    Uiso  ? C
   H782       1.0     0.751648     0.779885     0.739853    Uiso  ? H
   H783       1.0     0.758879     0.774358     0.712137    Uiso  ? H
   N67        1.0     0.779094     0.796037     0.729194    Uiso  ? N
   C1106      1.0     0.796855     0.794401     0.717773    Uiso  ? C
   C1107      1.0     0.783120     0.805529     0.747196    Uiso  ? C
   C1108      1.0     0.811702     0.802127     0.731293    Uiso  ? C
   H784       1.0     0.799334     0.789143     0.702324    Uiso  ? H
   H785       1.0     0.771993     0.809215     0.759591    Uiso  ? H
   H786       1.0     0.827452     0.803156     0.727821    Uiso  ? H
   N68        1.0     0.803340     0.809659     0.748020    Uiso  ? N
   C1109      1.0     0.360989     0.194940     0.626747    Uiso  ? C
   C1110      1.0     0.342011     0.197814     0.636227    Uiso  ? C
   C1111      1.0     0.341953     0.168202     0.619667    Uiso  ? C
   N69        1.0     0.360053     0.177287     0.614763    Uiso  ? N
   H787       1.0     0.372863     0.207268     0.625587    Uiso  ? H
   H788       1.0     0.337204     0.212028     0.644808    Uiso  ? H
   H789       1.0     0.334746     0.155404     0.611950    Uiso  ? H
   N70        1.0     0.330703     0.180377     0.632826    Uiso  ? N
   C1112      1.0     0.309531     0.176648     0.640231    Uiso  ? C
   H790       1.0     0.303001     0.191795     0.644461    Uiso  ? H
   H791       1.0     0.298600     0.170075     0.628086    Uiso  ? H
   C1113      1.0     0.309576     0.163282     0.661115    Uiso  ? C
   C1114      1.0     0.327123     0.153488     0.669092    Uiso  ? C
   C1115      1.0     0.290429     0.161564     0.672259    Uiso  ? C
   C1116      1.0     0.326153     0.141188     0.687388    Uiso  ? C
   H792       1.0     0.342125     0.154215     0.659684    Uiso  ? H
   C1117      1.0     0.289395     0.149502     0.690472    Uiso  ? C
   H793       1.0     0.276512     0.169428     0.667698    Uiso  ? H
   C1118      1.0     0.307342     0.139273     0.697585    Uiso  ? C
   H794       1.0     0.340670     0.134506     0.692702    Uiso  ? H
   H795       1.0     0.274892     0.149897     0.699728    Uiso  ? H
   C1119      1.0     0.305852     0.123334     0.714386    Uiso  ? C
   C1120      1.0     0.287542     0.111212     0.717328    Uiso  ? C
   C1121      1.0     0.322900     0.118849     0.727161    Uiso  ? C
   C1122      1.0     0.285995     0.889896     0.731223    Uiso  ? C
   H796       1.0     0.274166     0.114386     0.708213    Uiso  ? H
   C1123      1.0     0.321570     0.102910     0.742262    Uiso  ? C
   H797       1.0     0.338123     0.125990     0.725200    Uiso  ? H
   C1124      1.0     0.304005     0.885366     0.743098    Uiso  ? C
   H798       1.0     0.271845     0.881395     0.734846    Uiso  ? H
   H799       1.0     0.334904     0.894453     0.749673    Uiso  ? H
   C1125      1.0     0.301606     0.868110     0.760009    Uiso  ? C
   H800       1.0     0.291604     0.854466     0.755038    Uiso  ? H
   H801       1.0     0.316095     0.860418     0.763747    Uiso  ? H
   N71        1.0     0.292727     0.878861     0.777837    Uiso  ? N
   C1126      1.0     0.302746     0.889475     0.792429    Uiso  ? C
   C1127      1.0     0.271739     0.879739     0.782637    Uiso  ? C
   C1128      1.0     0.287575     0.896873     0.806410    Uiso  ? C
   H802       1.0     0.320202     0.892103     0.793749    Uiso  ? H
   H803       1.0     0.260448     0.873602     0.772203    Uiso  ? H
   H804       1.0     0.290610     0.110448     0.820167    Uiso  ? H
   N72        1.0     0.268591     0.890994     0.799902    Uiso  ? N
   C1129      1.0     0.197840     0.210135     0.248388    Uiso  ? C
   C1130      1.0     0.207749     0.213369     0.266630    Uiso  ? C
   C1131      1.0     0.203895     0.180167     0.262546    Uiso  ? C
   N73        1.0     0.194841     0.188906     0.245712    Uiso  ? N
   H805       1.0     0.192467     0.222270     0.236908    Uiso  ? H
   H806       1.0     0.214011     0.228653     0.270838    Uiso  ? H
   H807       1.0     0.202292     0.163211     0.266461    Uiso  ? H
   N74        1.0     0.211502     0.194702     0.276087    Uiso  ? N
   C1132      1.0     0.218560     0.192403     0.297652    Uiso  ? C
   H808       1.0     0.221335     0.208098     0.305266    Uiso  ? H
   H809       1.0     0.206064     0.183819     0.308215    Uiso  ? H
   C1133      1.0     0.239082     0.181210     0.297833    Uiso  ? C
   C1134      1.0     0.239174     0.159666     0.295076    Uiso  ? C
   C1135      1.0     0.258049     0.192328     0.298978    Uiso  ? C
   C1136      1.0     0.258302     0.148706     0.294576    Uiso  ? C
   H810       1.0     0.223823     0.151582     0.291305    Uiso  ? H
   C1137      1.0     0.277144     0.181357     0.298123    Uiso  ? C
   H811       1.0     0.258127     0.209055     0.301282    Uiso  ? H
   C1138      1.0     0.277033     0.159606     0.297117    Uiso  ? C
   H812       1.0     0.259069     0.132117     0.292234    Uiso  ? H
   H813       1.0     0.291197     0.190410     0.297668    Uiso  ? H
   C1139      1.0     0.296707     0.148210     0.298178    Uiso  ? C
   C1140      1.0     0.301606     0.134618     0.281579    Uiso  ? C
   C1141      1.0     0.311820     0.152001     0.313979    Uiso  ? C
   C1142      1.0     0.319911     0.121827     0.282619    Uiso  ? C
   H814       1.0     0.291369     0.131448     0.268345    Uiso  ? H
   C1143      1.0     0.330509     0.141780     0.313478    Uiso  ? C
   H815       1.0     0.310420     0.164314     0.325468    Uiso  ? H
   C1144      1.0     0.335046     0.126969     0.297233    Uiso  ? C
   H816       1.0     0.322273     0.108188     0.272918    Uiso  ? H
   H817       1.0     0.340722     0.145422     0.326100    Uiso  ? H
   C1145      1.0     0.356673     0.117310     0.297747    Uiso  ? C
   H818       1.0     0.360072     0.105186     0.286169    Uiso  ? H
   H819       1.0     0.368272     0.129852     0.293338    Uiso  ? H
   N75        1.0     0.361458     0.108289     0.317916    Uiso  ? N
   C1146      1.0     0.352293     0.887318     0.327791    Uiso  ? C
   C1147      1.0     0.375920     0.116228     0.330132    Uiso  ? C
   C1148      1.0     0.361807     0.886134     0.346675    Uiso  ? C
   H820       1.0     0.339826     0.878339     0.321388    Uiso  ? H
   H821       1.0     0.385004     0.130173     0.326976    Uiso  ? H
   H822       1.0     0.359071     0.874465     0.358466    Uiso  ? H
   N76        1.0     0.377259     0.105382     0.347851    Uiso  ? N
   C1149      1.0     0.708162     0.103338     0.188991    Uiso  ? C
   C1150      1.0     0.694868     0.105067     0.205265    Uiso  ? C
   C1151      1.0     0.723080     0.120069     0.214262    Uiso  ? C
   N77        1.0     0.726899     0.111424     0.194854    Uiso  ? N
   H823       1.0     0.705427     0.887869     0.176708    Uiso  ? H
   H824       1.0     0.676982     0.896751     0.204704    Uiso  ? H
   H825       1.0     0.734687     0.129163     0.222438    Uiso  ? H
   N78        1.0     0.703359     0.116697     0.220847    Uiso  ? N
   C1152      1.0     0.693587     0.127748     0.239636    Uiso  ? C
   H826       1.0     0.702690     0.141593     0.243515    Uiso  ? H
   H827       1.0     0.677187     0.133543     0.235792    Uiso  ? H
   C1153      1.0     0.692919     0.113639     0.257314    Uiso  ? C
   C1154      1.0     0.674534     0.897430     0.263264    Uiso  ? C
   C1155      1.0     0.710907     0.111131     0.268671    Uiso  ? C
   C1156      1.0     0.674845     0.885412     0.280972    Uiso  ? C
   H828       1.0     0.661934     0.103256     0.253723    Uiso  ? H
   C1157      1.0     0.710619     0.894228     0.286358    Uiso  ? C
   H829       1.0     0.725177     0.118813     0.264013    Uiso  ? H
   C1158      1.0     0.693118     0.883672     0.293633    Uiso  ? C
   H830       1.0     0.661759     0.874657     0.282889    Uiso  ? H
   H831       1.0     0.726122     0.890781     0.292901    Uiso  ? H
   C1159      1.0     0.694841     0.869574     0.311735    Uiso  ? C
   C1160      1.0     0.694693     0.847099     0.308375    Uiso  ? C
   C1161      1.0     0.696678     0.876559     0.332911    Uiso  ? C
   C1162      1.0     0.694102     0.833012     0.324976    Uiso  ? C
   H832       1.0     0.694393     0.840267     0.292430    Uiso  ? H
   C1163      1.0     0.696491     0.862164     0.349542    Uiso  ? C
   H833       1.0     0.697131     0.892886     0.336829    Uiso  ? H
   C1164      1.0     0.695401     0.839948     0.346309    Uiso  ? C
   H834       1.0     0.692732     0.816330     0.321175    Uiso  ? H
   H835       1.0     0.696363     0.868914     0.365730    Uiso  ? H
   C1165      1.0     0.692051     0.824436     0.363962    Uiso  ? C
   H836       1.0     0.697969     0.809674     0.359231    Uiso  ? H
   H837       1.0     0.701556     0.829526     0.376459    Uiso  ? H
   N79        1.0     0.670763     0.821890     0.370204    Uiso  ? N
   C1166      1.0     0.659463     0.804362     0.367660    Uiso  ? C
   C1167      1.0     0.659397     0.834341     0.382379    Uiso  ? C
   C1168      1.0     0.641087     0.806028     0.378509    Uiso  ? C
   H838       1.0     0.665416     0.790413     0.360127    Uiso  ? H
   H839       1.0     0.663703     0.850635     0.386573    Uiso  ? H
   H840       1.0     0.628455     0.795217     0.379884    Uiso  ? H
   N80        1.0     0.640746     0.824987     0.387504    Uiso  ? N
   C1169      1.0     0.877193     0.371414     0.654022    Uiso  ? C
   C1170      1.0     0.885107     0.359989     0.670093    Uiso  ? C
   C1171      1.0     0.110591     0.384747     0.664387    Uiso  ? C
   N81        1.0     0.891327     0.387018     0.649818    Uiso  ? N
   H841       1.0     0.864140     0.367925     0.644579    Uiso  ? H
   H842       1.0     0.877611     0.346634     0.675815    Uiso  ? H
   H843       1.0     0.123868     0.395538     0.667340    Uiso  ? H
   N82        1.0     0.106623     0.368067     0.676776    Uiso  ? N
   C1172      1.0     0.120533     0.359446     0.692896    Uiso  ? C
   H844       1.0     0.137042     0.365632     0.691021    Uiso  ? H
   H845       1.0     0.114509     0.364173     0.707933    Uiso  ? H
   C1173      1.0     0.123228     0.336078     0.691127    Uiso  ? C
   C1174      1.0     0.125765     0.326913     0.671635    Uiso  ? C
   C1175      1.0     0.124822     0.322996     0.708336    Uiso  ? C
   C1176      1.0     0.125079     0.305224     0.669210    Uiso  ? C
   H846       1.0     0.125401     0.335032     0.657546    Uiso  ? H
   C1177      1.0     0.127060     0.301902     0.706602    Uiso  ? C
   H847       1.0     0.124868     0.330169     0.724260    Uiso  ? H
   C1178      1.0     0.126321     0.292302     0.686532    Uiso  ? C
   H848       1.0     0.125772     0.297622     0.654202    Uiso  ? H
   H849       1.0     0.128700     0.292143     0.720540    Uiso  ? H
   C1179      1.0     0.129348     0.269220     0.684873    Uiso  ? C
   C1180      1.0     0.117235     0.257500     0.669783    Uiso  ? C
   C1181      1.0     0.143790     0.257831     0.697460    Uiso  ? C
   C1182      1.0     0.120382     0.236180     0.667481    Uiso  ? C
   H850       1.0     0.104727     0.265303     0.661085    Uiso  ? H
   C1183      1.0     0.146295     0.236187     0.695779    Uiso  ? C
   H851       1.0     0.154931     0.265312     0.706122    Uiso  ? H
   C1184      1.0     0.136333     0.226044     0.679707    Uiso  ? C
   H852       1.0     0.110098     0.227394     0.658145    Uiso  ? H
   H853       1.0     0.157147     0.228454     0.705721    Uiso  ? H
   C1185      1.0     0.139707     0.202683     0.678058    Uiso  ? C
   H854       1.0     0.134446     0.199120     0.663092    Uiso  ? H
   H855       1.0     0.155324     0.196378     0.680251    Uiso  ? H
   N83        1.0     0.125307     0.192637     0.693321    Uiso  ? N
   C1186      1.0     0.107113     0.183640     0.689022    Uiso  ? C
   C1187      1.0     0.129272     0.188316     0.713634    Uiso  ? C
   C1188      1.0     0.895983     0.174486     0.706487    Uiso  ? C
   H856       1.0     0.896488     0.183300     0.674218    Uiso  ? H
   H857       1.0     0.142716     0.193624     0.724338    Uiso  ? H
   H858       1.0     0.881707     0.165496     0.708385    Uiso  ? H
   N84        1.0     0.113460     0.177293     0.722001    Uiso  ? N
   C1189      1.0     0.137436     0.665029     0.627471    Uiso  ? C
   C1190      1.0     0.149840     0.679174     0.638067    Uiso  ? C
   C1191      1.0     0.169336     0.656084     0.623675    Uiso  ? C
   N85        1.0     0.150002     0.650158     0.618783    Uiso  ? N
   H859       1.0     0.119984     0.664511     0.625019    Uiso  ? H
   H860       1.0     0.145620     0.692775     0.648218    Uiso  ? H
   H861       1.0     0.182855     0.649193     0.616664    Uiso  ? H
   N86        1.0     0.170056     0.672524     0.636519    Uiso  ? N
   C1192      1.0     0.189260     0.684335     0.643038    Uiso  ? C
   H862       1.0     0.203357     0.676751     0.637895    Uiso  ? H
   H863       1.0     0.188694     0.699923     0.635700    Uiso  ? H
   C1193      1.0     0.188906     0.687704     0.666675    Uiso  ? C
   C1194      1.0     0.195595     0.671460     0.678484    Uiso  ? C
   C1195      1.0     0.182485     0.706801     0.674988    Uiso  ? C
   C1196      1.0     0.196990     0.673805     0.700383    Uiso  ? C
   H864       1.0     0.201006     0.656965     0.671250    Uiso  ? H
   C1197      1.0     0.184751     0.709971     0.696412    Uiso  ? C
   H865       1.0     0.178452     0.720072     0.664837    Uiso  ? H
   C1198      1.0     0.190719     0.692959     0.709914    Uiso  ? C
   H866       1.0     0.203272     0.661942     0.709908    Uiso  ? H
   H867       1.0     0.179071     0.724159     0.704362    Uiso  ? H
   C1199      1.0     0.192938     0.696529     0.732521    Uiso  ? C
   C1200      1.0     0.205905     0.711836     0.740256    Uiso  ? C
   C1201      1.0     0.182585     0.682509     0.745662    Uiso  ? C
   C1202      1.0     0.207813     0.714421     0.761910    Uiso  ? C
   H868       1.0     0.214291     0.723155     0.730204    Uiso  ? H
   C1203      1.0     0.185391     0.683547     0.766889    Uiso  ? C
   H869       1.0     0.171714     0.671074     0.740585    Uiso  ? H
   C1204      1.0     0.198510     0.698678     0.775039    Uiso  ? C
   H870       1.0     0.218656     0.726278     0.767761    Uiso  ? H
   H871       1.0     0.177347     0.672633     0.776820    Uiso  ? H
   C1205      1.0     0.203071     0.697744     0.797489    Uiso  ? C
   H872       1.0     0.206568     0.681006     0.802671    Uiso  ? H
   H873       1.0     0.216333     0.709327     0.800151    Uiso  ? H
   N87        1.0     0.186116     0.705259     0.809527    Uiso  ? N
   C1206      1.0     0.172685     0.694067     0.821021    Uiso  ? C
   C1207      1.0     0.182394     0.725544     0.815406    Uiso  ? C
   C1208      1.0     0.160081     0.707841     0.832120    Uiso  ? C
   H874       1.0     0.174161     0.678181     0.822685    Uiso  ? H
   H875       1.0     0.193708     0.738543     0.812621    Uiso  ? H
   H876       1.0     0.147366     0.704249     0.842108    Uiso  ? H
   N88        1.0     0.165702     0.727410     0.827435    Uiso  ? N
   C1209      1.0     0.887104     0.635536     0.334063    Uiso  ? C
   C1210      1.0     0.896404     0.647135     0.318175    Uiso  ? C
   C1211      1.0     0.123875     0.631819     0.336618    Uiso  ? C
   N89        1.0     0.105868     0.624780     0.344983    Uiso  ? N
   H877       1.0     0.869024     0.633118     0.334158    Uiso  ? H
   H878       1.0     0.888268     0.655470     0.306861    Uiso  ? H
   H879       1.0     0.139525     0.628012     0.343534    Uiso  ? H
   N90        1.0     0.120869     0.643144     0.319333    Uiso  ? N
   C1212      1.0     0.137093     0.653346     0.306836    Uiso  ? C
   H880       1.0     0.152296     0.648951     0.313663    Uiso  ? H
   H881       1.0     0.134988     0.648267     0.290967    Uiso  ? H
   C1213      1.0     0.135851     0.676024     0.308278    Uiso  ? C
   C1214      1.0     0.137276     0.688862     0.290544    Uiso  ? C
   C1215      1.0     0.131803     0.686050     0.327481    Uiso  ? C
   C1216      1.0     0.135738     0.710761     0.292621    Uiso  ? C
   H882       1.0     0.140348     0.682770     0.274930    Uiso  ? H
   C1217      1.0     0.130229     0.707891     0.329269    Uiso  ? C
   H883       1.0     0.131962     0.676784     0.341651    Uiso  ? H
   C1218      1.0     0.131840     0.720515     0.312238    Uiso  ? C
   H884       1.0     0.136935     0.719607     0.278468    Uiso  ? H
   H885       1.0     0.127448     0.714696     0.344700    Uiso  ? H
   C1219      1.0     0.129421     0.743925     0.316453    Uiso  ? C
   C1220      1.0     0.113134     0.750510     0.330081    Uiso  ? C
   C1221      1.0     0.140696     0.759546     0.304629    Uiso  ? C
   C1222      1.0     0.109574     0.771518     0.333204    Uiso  ? C
   H886       1.0     0.896875     0.740400     0.336606    Uiso  ? H
   C1223      1.0     0.137458     0.781294     0.308403    Uiso  ? C
   H887       1.0     0.153146     0.754271     0.294458    Uiso  ? H
   C1224      1.0     0.121487     0.787194     0.322023    Uiso  ? C
   H888       1.0     0.893845     0.776912     0.343082    Uiso  ? H
   H889       1.0     0.147831     0.793547     0.301886    Uiso  ? H
   C1225      1.0     0.114497     0.810232     0.323964    Uiso  ? C
   H890       1.0     0.108997     0.813928     0.339726    Uiso  ? H
   H891       1.0     0.129720     0.818318     0.319752    Uiso  ? H
   N91        1.0     0.895584     0.814630     0.306947    Uiso  ? N
   C1226      1.0     0.874827     0.812600     0.306098    Uiso  ? C
   C1227      1.0     0.104837     0.821149     0.286854    Uiso  ? C
   C1228      1.0     0.867291     0.816860     0.285759    Uiso  ? C
   H892       1.0     0.864934     0.807542     0.318244    Uiso  ? H
   H893       1.0     0.120515     0.826617     0.283543    Uiso  ? H
   H894       1.0     0.850600     0.815939     0.281322    Uiso  ? H
   N92        1.0     0.883548     0.824296     0.274489    Uiso  ? N
   C1229      1.0     0.819097     0.350398     0.379052    Uiso  ? C
   C1230      1.0     0.818148     0.331395     0.368704    Uiso  ? C
   C1231      1.0     0.848845     0.344508     0.364993    Uiso  ? C
   N93        1.0     0.838552     0.357794     0.378056    Uiso  ? N
   H895       1.0     0.806798     0.358872     0.387617    Uiso  ? H
   H896       1.0     0.803979     0.322063     0.368036    Uiso  ? H
   H897       1.0     0.865328     0.344309     0.361532    Uiso  ? H
   N94        1.0     0.837335     0.328366     0.359286    Uiso  ? N
   C1232      1.0     0.845016     0.309740     0.348255    Uiso  ? C
   H898       1.0     0.860869     0.305082     0.353214    Uiso  ? H
   H899       1.0     0.835984     0.296317     0.355083    Uiso  ? H
   C1233      1.0     0.842608     0.313611     0.324991    Uiso  ? C
   C1234      1.0     0.859607     0.322848     0.314207    Uiso  ? C
   C1235      1.0     0.824984     0.307664     0.313285    Uiso  ? C
   C1236      1.0     0.857863     0.325685     0.292666    Uiso  ? C
   H900       1.0     0.873371     0.326221     0.324220    Uiso  ? H
   C1237      1.0     0.822981     0.311124     0.292320    Uiso  ? C
   H901       1.0     0.811282     0.300198     0.320923    Uiso  ? H
   C1238      1.0     0.839964     0.320012     0.281625    Uiso  ? C
   H902       1.0     0.871290     0.333302     0.284999    Uiso  ? H
   H903       1.0     0.809555     0.305389     0.284478    Uiso  ? H
   C1239      1.0     0.839367     0.321939     0.258578    Uiso  ? C
   C1240      1.0     0.854293     0.311712     0.247552    Uiso  ? C
   C1241      1.0     0.825056     0.334168     0.248782    Uiso  ? C
   C1242      1.0     0.855297     0.314948     0.225772    Uiso  ? C
   H904       1.0     0.867732     0.302950     0.255184    Uiso  ? H
   C1243      1.0     0.823470     0.334739     0.226542    Uiso  ? C
   H905       1.0     0.811053     0.340377     0.256623    Uiso  ? H
   C1244      1.0     0.839408     0.325189     0.215351    Uiso  ? C
   H906       1.0     0.868189     0.307256     0.215925    Uiso  ? H
   H907       1.0     0.810209     0.344241     0.218104    Uiso  ? H
   C1245      1.0     0.838987     0.326115     0.192250    Uiso  ? C
   H908       1.0     0.830712     0.339999     0.185719    Uiso  ? H
   H909       1.0     0.855531     0.328780     0.187022    Uiso  ? H
   N95        1.0     0.830688     0.306386     0.184563    Uiso  ? N
   C1246      1.0     0.810389     0.299883     0.184118    Uiso  ? C
   C1247      1.0     0.842407     0.290706     0.176262    Uiso  ? C
   C1248      1.0     0.810650     0.279862     0.175153    Uiso  ? C
   H910       1.0     0.796391     0.307114     0.191488    Uiso  ? H
   H911       1.0     0.859344     0.288783     0.176868    Uiso  ? H
   H912       1.0     0.797435     0.268722     0.176422    Uiso  ? H
   N96        1.0     0.830591     0.274372     0.170142    Uiso  ? N
