
#======================================================================
# CRYSTAL DATA
#----------------------------------------------------------------------
data_VESTA_phase_1

_chemical_name_common                  ' Atoms. Timestep: 0'
_cell_length_a                         71.439354
_cell_length_b                         71.439354
_cell_length_c                         71.439354
_cell_angle_alpha                      90.000000
_cell_angle_beta                       90.000000
_cell_angle_gamma                      90.000000
_cell_volume                           1.000000
_space_group_name_H-M_alt              'P 1'
_space_group_IT_number                 1

loop_
_space_group_symop_operation_xyz
   'x, y, z'

loop_
   _atom_site_label
   _atom_site_occupancy
   _atom_site_fract_x
   _atom_site_fract_y
   _atom_site_fract_z
   _atom_site_adp_type
   _atom_site_U_iso_or_equiv
   _atom_site_type_symbol
   C1         1.0     0.882593     0.205622     0.178101    Uiso  ? C
   C2         1.0     0.868379     0.218252     0.169703    Uiso  ? C
   C3         1.0     0.867161     0.236879     0.174974    Uiso  ? C
   H1         1.0     0.875408     0.242777     0.186201    Uiso  ? H
   C4         1.0     0.852599     0.248015     0.168441    Uiso  ? C
   H2         1.0     0.850321     0.262419     0.174518    Uiso  ? H
   C5         1.0     0.840348     0.241800     0.155053    Uiso  ? C
   H3         1.0     0.830096     0.250648     0.148956    Uiso  ? H
   C6         1.0     0.843262     0.223397     0.147151    Uiso  ? C
   C7         1.0     0.856765     0.211891     0.155705    Uiso  ? C
   H4         1.0     0.858143     0.196969     0.151361    Uiso  ? H
   C8         1.0     0.831314     0.214502     0.132807    Uiso  ? C
   C9         1.0     0.886304     0.169970     0.210510    Uiso  ? C
   C10        1.0     0.870555     0.162072     0.220828    Uiso  ? C
   C11        1.0     0.865120     0.169046     0.238758    Uiso  ? C
   H5         1.0     0.872577     0.181322     0.245227    Uiso  ? H
   C12        1.0     0.849803     0.162074     0.248396    Uiso  ? C
   H6         1.0     0.845355     0.168214     0.261612    Uiso  ? H
   C13        1.0     0.839759     0.147192     0.240690    Uiso  ? C
   H7         1.0     0.827965     0.141960     0.247998    Uiso  ? H
   C14        1.0     0.844348     0.139830     0.223058    Uiso  ? C
   C15        1.0     0.860583     0.147052     0.213454    Uiso  ? C
   H8         1.0     0.863517     0.141250     0.199947    Uiso  ? H
   C16        1.0     0.832095     0.125468     0.213086    Uiso  ? C
   C17        1.0     0.138544     0.169039     0.208155    Uiso  ? C
   C18        1.0     0.153340     0.156736     0.215601    Uiso  ? C
   C19        1.0     0.160671     0.161534     0.233274    Uiso  ? C
   H9         1.0     0.155886     0.173346     0.240817    Uiso  ? H
   C20        1.0     0.176652     0.152437     0.239775    Uiso  ? C
   H10        1.0     0.184423     0.156599     0.251342    Uiso  ? H
   C21        1.0     0.184145     0.137150     0.229739    Uiso  ? C
   H11        1.0     0.196070     0.130325     0.234503    Uiso  ? H
   C22        1.0     0.175471     0.131078     0.212625    Uiso  ? C
   C23        1.0     0.159614     0.140833     0.206272    Uiso  ? C
   H12        1.0     0.151985     0.136064     0.194277    Uiso  ? H
   C24        1.0     0.184016     0.116661     0.201782    Uiso  ? C
   C25        1.0     0.136014     0.206062     0.172298    Uiso  ? C
   C26        1.0     0.151265     0.214780     0.162338    Uiso  ? C
   C27        1.0     0.155594     0.233050     0.165713    Uiso  ? C
   H13        1.0     0.148876     0.240562     0.177321    Uiso  ? H
   C28        1.0     0.170173     0.242214     0.156191    Uiso  ? C
   H14        1.0     0.174820     0.255413     0.160924    Uiso  ? H
   C29        1.0     0.179273     0.232972     0.141458    Uiso  ? C
   H15        1.0     0.190615     0.239988     0.133870    Uiso  ? H
   C30        1.0     0.173581     0.214720     0.136232    Uiso  ? C
   C31        1.0     0.160551     0.205002     0.147721    Uiso  ? C
   H16        1.0     0.157144     0.190029     0.145293    Uiso  ? H
   C32        1.0     0.182755     0.204023     0.120776    Uiso  ? C
   C33        1.0     0.789446     0.183808     0.884706    Uiso  ? C
   C34        1.0     0.778204     0.174914     0.870494    Uiso  ? C
   C35        1.0     0.760292     0.182265     0.866061    Uiso  ? C
   H17        1.0     0.755697     0.195662     0.871934    Uiso  ? H
   C36        1.0     0.750649     0.174001     0.851082    Uiso  ? C
   H18        1.0     0.736570     0.179579     0.847228    Uiso  ? H
   C37        1.0     0.757487     0.158011     0.841312    Uiso  ? C
   H19        1.0     0.749429     0.150802     0.830586    Uiso  ? H
   C38        1.0     0.774652     0.150667     0.846286    Uiso  ? C
   C39        1.0     0.785074     0.159839     0.860683    Uiso  ? C
   H20        1.0     0.798707     0.154865     0.864584    Uiso  ? H
   C40        1.0     0.783038     0.135284     0.834921    Uiso  ? C
   C41        1.0     0.793690     0.182062     0.133848    Uiso  ? C
   C42        1.0     0.784817     0.172471     0.149979    Uiso  ? C
   C43        1.0     0.767802     0.178624     0.157775    Uiso  ? C
   H21        1.0     0.760892     0.190273     0.152363    Uiso  ? H
   C44        1.0     0.759579     0.168763     0.173140    Uiso  ? C
   H22        1.0     0.747055     0.174334     0.179886    Uiso  ? H
   C45        1.0     0.768140     0.153138     0.180600    Uiso  ? C
   H23        1.0     0.761624     0.147472     0.192544    Uiso  ? H
   C46        1.0     0.785314     0.147091     0.173797    Uiso  ? C
   C47        1.0     0.793451     0.156396     0.157942    Uiso  ? C
   H24        1.0     0.806257     0.149911     0.152353    Uiso  ? H
   C48        1.0     0.794636     0.130787     0.182398    Uiso  ? C
   C49        1.0     0.828749     0.212450     0.883533    Uiso  ? C
   C50        1.0     0.840006     0.222615     0.870183    Uiso  ? C
   C51        1.0     0.837604     0.241577     0.867080    Uiso  ? C
   H25        1.0     0.826943     0.250074     0.873831    Uiso  ? H
   C52        1.0     0.847895     0.250886     0.852530    Uiso  ? C
   H26        1.0     0.845398     0.266136     0.849328    Uiso  ? H
   C53        1.0     0.860139     0.241115     0.841364    Uiso  ? C
   H27        1.0     0.868709     0.249048     0.830580    Uiso  ? H
   C54        1.0     0.864071     0.222392     0.845200    Uiso  ? C
   C55        1.0     0.855601     0.213649     0.860172    Uiso  ? C
   H28        1.0     0.858966     0.198998     0.862529    Uiso  ? H
   C56        1.0     0.876335     0.212334     0.832141    Uiso  ? C
   C57        1.0     0.791142     0.877078     0.178616    Uiso  ? C
   C58        1.0     0.780456     0.862586     0.168439    Uiso  ? C
   C59        1.0     0.762777     0.857688     0.174335    Uiso  ? C
   H29        1.0     0.756069     0.864697     0.185600    Uiso  ? H
   C60        1.0     0.753485     0.842373     0.166079    Uiso  ? C
   H30        1.0     0.740106     0.838667     0.172649    Uiso  ? H
   C61        1.0     0.762060     0.831724     0.151739    Uiso  ? C
   H31        1.0     0.755241     0.819498     0.146616    Uiso  ? H
   C62        1.0     0.778910     0.837631     0.145016    Uiso  ? C
   C63        1.0     0.789046     0.853250     0.153122    Uiso  ? C
   H32        1.0     0.801680     0.857925     0.147153    Uiso  ? H
   C64        1.0     0.787034     0.827148     0.128772    Uiso  ? C
   C65        1.0     0.826761     0.873422     0.208685    Uiso  ? C
   C66        1.0     0.835741     0.856598     0.215263    Uiso  ? C
   C67        1.0     0.831843     0.850188     0.233626    Uiso  ? C
   H33        1.0     0.824116     0.858187     0.242757    Uiso  ? H
   C68        1.0     0.839106     0.833268     0.240622    Uiso  ? C
   H34        1.0     0.837162     0.829518     0.255103    Uiso  ? H
   C69        1.0     0.849721     0.821572     0.228664    Uiso  ? C
   H35        1.0     0.856972     0.809503     0.235043    Uiso  ? H
   C70        1.0     0.855345     0.828034     0.211717    Uiso  ? C
   C71        1.0     0.848045     0.845646     0.204787    Uiso  ? C
   H36        1.0     0.851673     0.850592     0.190469    Uiso  ? H
   C72        1.0     0.870046     0.818682     0.200249    Uiso  ? C
   C73        1.0     0.869078     0.178004     0.795469    Uiso  ? C
   C74        1.0     0.854645     0.167610     0.785840    Uiso  ? C
   C75        1.0     0.850780     0.170703     0.767117    Uiso  ? C
   H37        1.0     0.859420     0.179857     0.758484    Uiso  ? H
   C76        1.0     0.834718     0.163103     0.758947    Uiso  ? C
   H38        1.0     0.831879     0.166750     0.744020    Uiso  ? H
   C77        1.0     0.822857     0.151893     0.768981    Uiso  ? C
   H39        1.0     0.809673     0.147809     0.763577    Uiso  ? H
   C78        1.0     0.827022     0.146660     0.787208    Uiso  ? C
   C79        1.0     0.842657     0.155062     0.795345    Uiso  ? C
   H40        1.0     0.845260     0.153066     0.809672    Uiso  ? H
   C80        1.0     0.814800     0.133587     0.797761    Uiso  ? C
   C81        1.0     0.126742     0.207433     0.825983    Uiso  ? C
   C82        1.0     0.143994     0.216043     0.832523    Uiso  ? C
   C83        1.0     0.153276     0.230474     0.821965    Uiso  ? C
   H41        1.0     0.145531     0.237022     0.810012    Uiso  ? H
   C84        1.0     0.171208     0.235920     0.827334    Uiso  ? C
   H42        1.0     0.177746     0.246936     0.819960    Uiso  ? H
   C85        1.0     0.180771     0.227073     0.842024    Uiso  ? C
   H43        1.0     0.195523     0.230966     0.844560    Uiso  ? H
   C86        1.0     0.171490     0.213745     0.853234    Uiso  ? C
   C87        1.0     0.154105     0.207645     0.847173    Uiso  ? C
   H44        1.0     0.147331     0.195982     0.854062    Uiso  ? H
   C88        1.0     0.181017     0.204697     0.870247    Uiso  ? C
   C89        1.0     0.215073     0.168037     0.116169    Uiso  ? C
   C90        1.0     0.225581     0.157044     0.129571    Uiso  ? C
   C91        1.0     0.244276     0.160949     0.133893    Uiso  ? C
   H45        1.0     0.250848     0.172892     0.128099    Uiso  ? H
   C92        1.0     0.252544     0.149143     0.147142    Uiso  ? C
   H46        1.0     0.267050     0.152179     0.150688    Uiso  ? H
   C93        1.0     0.244237     0.133460     0.155716    Uiso  ? C
   H47        1.0     0.252248     0.124285     0.165111    Uiso  ? H
   C94        1.0     0.225066     0.131093     0.152442    Uiso  ? C
   C95        1.0     0.216308     0.141944     0.139440    Uiso  ? C
   H48        1.0     0.200929     0.138497     0.136803    Uiso  ? H
   C96        1.0     0.215144     0.116828     0.162856    Uiso  ? C
   O1         1.0     0.888221     0.189954     0.169362    Uiso  ? O
   O2         1.0     0.890523     0.211164     0.193331    Uiso  ? O
   O3         1.0     0.891328     0.163276     0.193785    Uiso  ? O
   O4         1.0     0.893848     0.184926     0.217316    Uiso  ? O
   O5         1.0     0.128320     0.163028     0.193518    Uiso  ? O
   O6         1.0     0.135790     0.186122     0.213777    Uiso  ? O
   O7         1.0     0.130012     0.189178     0.167864    Uiso  ? O
   O8         1.0     0.128891     0.213917     0.187057    Uiso  ? O
   O9         1.0     0.804160     0.174696     0.891405    Uiso  ? O
   O10        1.0     0.785167     0.201022     0.890584    Uiso  ? O
   O11        1.0     0.809138     0.176214     0.127411    Uiso  ? O
   O12        1.0     0.786947     0.197653     0.127255    Uiso  ? O
   O13        1.0     0.835215     0.197792     0.126533    Uiso  ? O
   O14        1.0     0.816157     0.222911     0.126880    Uiso  ? O
   O15        1.0     0.835055     0.196372     0.890319    Uiso  ? O
   O16        1.0     0.814450     0.221079     0.890938    Uiso  ? O
   O17        1.0     0.806561     0.883905     0.171152    Uiso  ? O
   O18        1.0     0.784318     0.883599     0.194453    Uiso  ? O
   O19        1.0     0.832978     0.880606     0.193067    Uiso  ? O
   O20        1.0     0.811500     0.879744     0.216748    Uiso  ? O
   O21        1.0     0.835626     0.121358     0.195977    Uiso  ? O
   O22        1.0     0.816799     0.118867     0.220702    Uiso  ? O
   O23        1.0     0.808140     0.123106     0.173064    Uiso  ? O
   O24        1.0     0.788406     0.123446     0.198045    Uiso  ? O
   O25        1.0     0.877137     0.170207     0.809765    Uiso  ? O
   O26        1.0     0.874030     0.194386     0.789372    Uiso  ? O
   O27        1.0     0.882381     0.195079     0.835561    Uiso  ? O
   O28        1.0     0.880362     0.220182     0.815927    Uiso  ? O
   O29        1.0     0.120727     0.191226     0.832355    Uiso  ? O
   O30        1.0     0.118604     0.215513     0.811508    Uiso  ? O
   O31        1.0     0.117125     0.169633     0.804317    Uiso  ? O
   O32        1.0     0.114274     0.193971     0.783843    Uiso  ? O
   O33        1.0     0.172479     0.190092     0.878487    Uiso  ? O
   O34        1.0     0.197844     0.209813     0.874879    Uiso  ? O
   O35        1.0     0.175995     0.187988     0.115265    Uiso  ? O
   O36        1.0     0.198441     0.210743     0.112945    Uiso  ? O
   O37        1.0     0.198018     0.162925     0.111477    Uiso  ? O
   O38        1.0     0.222479     0.183997     0.110001    Uiso  ? O
   O39        1.0     0.198706     0.162954     0.875085    Uiso  ? O
   O40        1.0     0.221986     0.184902     0.875127    Uiso  ? O
   O41        1.0     0.817673     0.883796     0.816762    Uiso  ? O
   O42        1.0     0.798071     0.889856     0.792979    Uiso  ? O
   O43        1.0     0.795018     0.889434     0.842747    Uiso  ? O
   O44        1.0     0.772014     0.888688     0.821021    Uiso  ? O
   O45        1.0     0.799284     0.128245     0.840534    Uiso  ? O
   O46        1.0     0.774805     0.129043     0.819851    Uiso  ? O
   O47        1.0     0.822489     0.125000     0.812351    Uiso  ? O
   O48        1.0     0.797917     0.128353     0.792051    Uiso  ? O
   O49        1.0     0.110548     0.158824     0.158981    Uiso  ? O
   O50        1.0     0.837314     0.163745     0.105662    Uiso  ? O
   O51        1.0     0.838444     0.105711     0.160473    Uiso  ? O
   O52        1.0     0.897323     0.159894     0.840106    Uiso  ? O
   O53        1.0     0.164821     0.157803     0.893448    Uiso  ? O
   O54        1.0     0.831983     0.108858     0.846431    Uiso  ? O
   Zn1        1.0     0.110481     0.175411     0.178303    Uiso  ? Zn
   Zn2        1.0     0.114977     0.201283     0.205884    Uiso  ? Zn
   Zn3        1.0     0.822666     0.184334     0.107648    Uiso  ? Zn
   Zn4        1.0     0.798461     0.213053     0.108841    Uiso  ? Zn
   Zn5        1.0     0.823823     0.104894     0.180789    Uiso  ? Zn
   Zn6        1.0     0.798249     0.103394     0.209989    Uiso  ? Zn
   Zn7        1.0     0.897409     0.179377     0.821328    Uiso  ? Zn
   Zn8        1.0     0.894854     0.208347     0.797922    Uiso  ? Zn
   Zn9        1.0     0.183651     0.173744     0.894308    Uiso  ? Zn
   Zn10       1.0     0.212719     0.199748     0.893620    Uiso  ? Zn
   Zn11       1.0     0.811638     0.109645     0.830117    Uiso  ? Zn
   Zn12       1.0     0.782924     0.110199     0.804845    Uiso  ? Zn
   C97        1.0     0.115526     0.795124     0.817695    Uiso  ? C
   C98        1.0     0.129783     0.784039     0.827935    Uiso  ? C
   C99        1.0     0.133326     0.765315     0.823149    Uiso  ? C
   H49        1.0     0.123936     0.758203     0.813258    Uiso  ? H
   C100       1.0     0.147747     0.755120     0.831738    Uiso  ? C
   H50        1.0     0.149893     0.740339     0.828560    Uiso  ? H
   C101       1.0     0.159701     0.763523     0.844385    Uiso  ? C
   H51        1.0     0.172366     0.755423     0.849186    Uiso  ? H
   C102       1.0     0.156490     0.782465     0.849724    Uiso  ? C
   C103       1.0     0.141152     0.792786     0.841539    Uiso  ? C
   H52        1.0     0.139182     0.807293     0.845489    Uiso  ? H
   C104       1.0     0.169414     0.790280     0.862355    Uiso  ? C
   C105       1.0     0.116094     0.828886     0.784698    Uiso  ? C
   C106       1.0     0.132651     0.837279     0.774380    Uiso  ? C
   C107       1.0     0.136864     0.831610     0.755414    Uiso  ? C
   H53        1.0     0.129778     0.820513     0.748231    Uiso  ? H
   C108       1.0     0.150809     0.841207     0.745682    Uiso  ? C
   H54        1.0     0.154306     0.837722     0.730711    Uiso  ? H
   C109       1.0     0.161566     0.855109     0.754191    Uiso  ? C
   H55        1.0     0.172369     0.862550     0.746607    Uiso  ? H
   C110       1.0     0.157731     0.860167     0.772642    Uiso  ? C
   C111       1.0     0.143449     0.851823     0.782486    Uiso  ? C
   H56        1.0     0.139033     0.856345     0.796407    Uiso  ? H
   C112       1.0     0.168183     0.875037     0.781961    Uiso  ? C
   C113       1.0     0.861556     0.832818     0.789391    Uiso  ? C
   C114       1.0     0.845806     0.843500     0.781749    Uiso  ? C
   C115       1.0     0.838107     0.840390     0.764148    Uiso  ? C
   H57        1.0     0.845818     0.831027     0.755295    Uiso  ? H
   C116       1.0     0.822188     0.848804     0.758026    Uiso  ? C
   H58        1.0     0.816962     0.846406     0.744349    Uiso  ? H
   C117       1.0     0.813368     0.862024     0.769461    Uiso  ? C
   H59        1.0     0.801886     0.869798     0.763715    Uiso  ? H
   C118       1.0     0.820791     0.866061     0.787367    Uiso  ? C
   C119       1.0     0.837183     0.856447     0.793087    Uiso  ? C
   H60        1.0     0.841550     0.858512     0.807177    Uiso  ? H
   C120       1.0     0.811798     0.880144     0.799673    Uiso  ? C
   C121       1.0     0.862499     0.798916     0.820533    Uiso  ? C
   C122       1.0     0.846557     0.790087     0.830481    Uiso  ? C
   C123       1.0     0.838496     0.773021     0.823696    Uiso  ? C
   H61        1.0     0.844124     0.767100     0.811468    Uiso  ? H
   C124       1.0     0.825148     0.763378     0.834445    Uiso  ? C
   H62        1.0     0.818893     0.750218     0.830713    Uiso  ? H
   C125       1.0     0.818459     0.770713     0.850900    Uiso  ? C
   H63        1.0     0.807425     0.762623     0.858180    Uiso  ? H
   C126       1.0     0.823241     0.788900     0.856171    Uiso  ? C
   C127       1.0     0.837064     0.798949     0.845418    Uiso  ? C
   H64        1.0     0.843139     0.811708     0.851567    Uiso  ? H
   C128       1.0     0.815588     0.796540     0.873151    Uiso  ? C
   C129       1.0     0.211104     0.820342     0.108759    Uiso  ? C
   C130       1.0     0.221503     0.828987     0.124266    Uiso  ? C
   C131       1.0     0.239924     0.824038     0.127245    Uiso  ? C
   H65        1.0     0.247826     0.815132     0.117892    Uiso  ? H
   C132       1.0     0.250061     0.832439     0.142202    Uiso  ? C
   H66        1.0     0.264734     0.828363     0.145754    Uiso  ? H
   C133       1.0     0.240611     0.845149     0.154130    Uiso  ? C
   H67        1.0     0.248040     0.851328     0.165504    Uiso  ? H
   C134       1.0     0.221762     0.849092     0.151646    Uiso  ? C
   C135       1.0     0.212741     0.841045     0.136851    Uiso  ? C
   H68        1.0     0.197592     0.844777     0.134962    Uiso  ? H
   C136       1.0     0.213222     0.862284     0.164249    Uiso  ? C
   C137       1.0     0.206566     0.819917     0.859427    Uiso  ? C
   C138       1.0     0.215731     0.829116     0.842607    Uiso  ? C
   C139       1.0     0.231896     0.822011     0.834504    Uiso  ? C
   H69        1.0     0.239961     0.810259     0.840376    Uiso  ? H
   C140       1.0     0.240105     0.831265     0.818934    Uiso  ? C
   H70        1.0     0.251364     0.824130     0.813020    Uiso  ? H
   C141       1.0     0.231258     0.846972     0.810537    Uiso  ? C
   H71        1.0     0.237101     0.853183     0.797786    Uiso  ? H
   C142       1.0     0.215516     0.854907     0.818902    Uiso  ? C
   C143       1.0     0.208052     0.846088     0.835208    Uiso  ? C
   H72        1.0     0.195143     0.851415     0.841531    Uiso  ? H
   C144       1.0     0.205795     0.871184     0.810132    Uiso  ? C
   C145       1.0     0.173419     0.786663     0.111427    Uiso  ? C
   C146       1.0     0.163593     0.777399     0.128025    Uiso  ? C
   C147       1.0     0.169673     0.760064     0.133636    Uiso  ? C
   H73        1.0     0.179748     0.751853     0.126522    Uiso  ? H
   C148       1.0     0.162254     0.751172     0.149605    Uiso  ? C
   H74        1.0     0.166846     0.737521     0.153717    Uiso  ? H
   C149       1.0     0.147182     0.759432     0.158556    Uiso  ? C
   H75        1.0     0.141575     0.751418     0.169740    Uiso  ? H
   C150       1.0     0.140458     0.777247     0.152797    Uiso  ? C
   C151       1.0     0.148856     0.786466     0.137196    Uiso  ? C
   H76        1.0     0.143986     0.800735     0.133655    Uiso  ? H
   C152       1.0     0.124651     0.786051     0.163013    Uiso  ? C
   C153       1.0     0.209964     0.124190     0.815965    Uiso  ? C
   C154       1.0     0.221823     0.138135     0.826613    Uiso  ? C
   C155       1.0     0.238226     0.145651     0.818899    Uiso  ? C
   H77        1.0     0.244340     0.138480     0.807331    Uiso  ? H
   C156       1.0     0.246777     0.161291     0.827387    Uiso  ? C
   H78        1.0     0.259024     0.168892     0.822622    Uiso  ? H
   C157       1.0     0.237830     0.170222     0.842617    Uiso  ? C
   H79        1.0     0.242296     0.184224     0.847784    Uiso  ? H
   C158       1.0     0.221893     0.161453     0.851513    Uiso  ? C
   C159       1.0     0.214947     0.144699     0.844326    Uiso  ? C
   H80        1.0     0.202626     0.138469     0.850726    Uiso  ? H
   C160       1.0     0.214275     0.169541     0.868403    Uiso  ? C
   C161       1.0     0.172851     0.129976     0.783623    Uiso  ? C
   C162       1.0     0.161768     0.145954     0.775329    Uiso  ? C
   C163       1.0     0.164870     0.150421     0.756566    Uiso  ? C
   H81        1.0     0.175543     0.142792     0.749316    Uiso  ? H
   C164       1.0     0.155295     0.165278     0.748201    Uiso  ? C
   H82        1.0     0.157951     0.169367     0.733603    Uiso  ? H
   C165       1.0     0.140446     0.174458     0.758110    Uiso  ? C
   H83        1.0     0.132643     0.185826     0.752013    Uiso  ? H
   C166       1.0     0.136089     0.168540     0.776837    Uiso  ? C
   C167       1.0     0.147485     0.154670     0.785552    Uiso  ? C
   H84        1.0     0.146124     0.151351     0.800489    Uiso  ? H
   C168       1.0     0.121744     0.177562     0.788630    Uiso  ? C
   C169       1.0     0.126142     0.817072     0.199263    Uiso  ? C
   C170       1.0     0.141679     0.825895     0.209630    Uiso  ? C
   C171       1.0     0.146466     0.821025     0.228025    Uiso  ? C
   H85        1.0     0.137823     0.811707     0.235952    Uiso  ? H
   C172       1.0     0.162205     0.829837     0.237026    Uiso  ? C
   H86        1.0     0.165374     0.826091     0.250420    Uiso  ? H
   C173       1.0     0.172542     0.843586     0.227164    Uiso  ? C
   H87        1.0     0.185377     0.850219     0.232303    Uiso  ? H
   C174       1.0     0.167739     0.848817     0.208614    Uiso  ? C
   C175       1.0     0.152217     0.840584     0.200449    Uiso  ? C
   H88        1.0     0.148834     0.844409     0.185514    Uiso  ? H
   C176       1.0     0.178624     0.863408     0.199040    Uiso  ? C
   C177       1.0     0.871949     0.784597     0.165980    Uiso  ? C
   C178       1.0     0.856429     0.775442     0.155768    Uiso  ? C
   C179       1.0     0.849998     0.757542     0.160591    Uiso  ? C
   H89        1.0     0.856644     0.749317     0.170905    Uiso  ? H
   C180       1.0     0.833384     0.749682     0.153505    Uiso  ? C
   H90        1.0     0.828121     0.735479     0.158437    Uiso  ? H
   C181       1.0     0.822660     0.760389     0.140935    Uiso  ? C
   H91        1.0     0.808864     0.755938     0.137427    Uiso  ? H
   C182       1.0     0.829603     0.778252     0.135360    Uiso  ? C
   C183       1.0     0.846213     0.785556     0.142653    Uiso  ? C
   H92        1.0     0.850765     0.799733     0.137666    Uiso  ? H
   C184       1.0     0.818928     0.789081     0.121733    Uiso  ? C
   C185       1.0     0.781341     0.830395     0.881568    Uiso  ? C
   C186       1.0     0.769248     0.844055     0.871148    Uiso  ? C
   C187       1.0     0.750106     0.839761     0.867675    Uiso  ? C
   H93        1.0     0.743452     0.827515     0.872817    Uiso  ? H
   C188       1.0     0.739871     0.851321     0.855236    Uiso  ? C
   H94        1.0     0.725127     0.847866     0.852865    Uiso  ? H
   C189       1.0     0.748960     0.865473     0.845244    Uiso  ? C
   H95        1.0     0.741736     0.872833     0.834139    Uiso  ? H
   C190       1.0     0.768435     0.869620     0.848611    Uiso  ? C
   C191       1.0     0.777753     0.859316     0.862288    Uiso  ? C
   H96        1.0     0.793112     0.862796     0.863526    Uiso  ? H
   C192       1.0     0.778364     0.883492     0.837162    Uiso  ? C
   O55        1.0     0.109327     0.810471     0.825404    Uiso  ? O
   O56        1.0     0.108462     0.789155     0.802198    Uiso  ? O
   O57        1.0     0.110895     0.835660     0.800639    Uiso  ? O
   O58        1.0     0.107668     0.814184     0.778325    Uiso  ? O
   O59        1.0     0.871630     0.840566     0.802643    Uiso  ? O
   O60        1.0     0.866823     0.816651     0.782496    Uiso  ? O
   O61        1.0     0.869456     0.814233     0.826626    Uiso  ? O
   O62        1.0     0.869553     0.790496     0.805789    Uiso  ? O
   O63        1.0     0.195513     0.828340     0.102409    Uiso  ? O
   O64        1.0     0.216812     0.803889     0.101949    Uiso  ? O
   O65        1.0     0.191428     0.827330     0.866940    Uiso  ? O
   O66        1.0     0.212539     0.804284     0.866132    Uiso  ? O
   O67        1.0     0.164132     0.805644     0.870742    Uiso  ? O
   O68        1.0     0.184631     0.781221     0.866765    Uiso  ? O
   O69        1.0     0.168550     0.803162     0.105391    Uiso  ? O
   O70        1.0     0.188520     0.779286     0.104202    Uiso  ? O
   O71        1.0     0.194609     0.117473     0.822545    Uiso  ? O
   O72        1.0     0.215918     0.118591     0.799635    Uiso  ? O
   O73        1.0     0.166209     0.120841     0.798273    Uiso  ? O
   O74        1.0     0.187836     0.123746     0.775356    Uiso  ? O
   O75        1.0     0.164989     0.879482     0.799147    Uiso  ? O
   O76        1.0     0.182352     0.882957     0.772824    Uiso  ? O
   O77        1.0     0.191886     0.878375     0.818681    Uiso  ? O
   O78        1.0     0.212155     0.878179     0.794401    Uiso  ? O
   O79        1.0     0.118645     0.825455     0.184453    Uiso  ? O
   O80        1.0     0.117588     0.802716     0.206617    Uiso  ? O
   O81        1.0     0.116547     0.800667     0.156539    Uiso  ? O
   O82        1.0     0.117550     0.778213     0.178658    Uiso  ? O
   O83        1.0     0.877508     0.801411     0.160630    Uiso  ? O
   O84        1.0     0.880236     0.776176     0.179377    Uiso  ? O
   O85        1.0     0.877602     0.826503     0.185365    Uiso  ? O
   O86        1.0     0.876184     0.802306     0.206041    Uiso  ? O
   O87        1.0     0.825635     0.804718     0.115398    Uiso  ? O
   O88        1.0     0.801441     0.784974     0.118199    Uiso  ? O
   O89        1.0     0.823031     0.811670     0.880465    Uiso  ? O
   O90        1.0     0.800613     0.788610     0.881386    Uiso  ? O
   O91        1.0     0.798649     0.834774     0.885014    Uiso  ? O
   O92        1.0     0.774805     0.814418     0.886775    Uiso  ? O
   O93        1.0     0.802691     0.833241     0.121379    Uiso  ? O
   O94        1.0     0.780023     0.811277     0.122750    Uiso  ? O
   O95        1.0     0.176628     0.112142     0.185814    Uiso  ? O
   O96        1.0     0.199312     0.107588     0.207363    Uiso  ? O
   O97        1.0     0.199548     0.109431     0.156284    Uiso  ? O
   O98        1.0     0.222200     0.108930     0.178231    Uiso  ? O
   O99        1.0     0.197989     0.870902     0.159234    Uiso  ? O
   O100       1.0     0.222627     0.868208     0.179650    Uiso  ? O
   O101       1.0     0.170771     0.872186     0.184030    Uiso  ? O
   O102       1.0     0.196220     0.867981     0.203777    Uiso  ? O
   O103       1.0     0.893285     0.846139     0.834442    Uiso  ? O
   O104       1.0     0.163756     0.836238     0.889779    Uiso  ? O
   O105       1.0     0.162035     0.897924     0.833273    Uiso  ? O
   O106       1.0     0.894706     0.834389     0.152822    Uiso  ? O
   O107       1.0     0.835026     0.840594     0.101558    Uiso  ? O
   O108       1.0     0.165469     0.889608     0.150546    Uiso  ? O
   Zn13       1.0     0.889262     0.827316     0.817028    Uiso  ? Zn
   Zn14       1.0     0.886065     0.800194     0.789295    Uiso  ? Zn
   Zn15       1.0     0.178471     0.817237     0.887086    Uiso  ? Zn
   Zn16       1.0     0.202638     0.789090     0.884173    Uiso  ? Zn
   Zn17       1.0     0.177682     0.101965     0.812596    Uiso  ? Zn
   Zn18       1.0     0.201535     0.102747     0.783574    Uiso  ? Zn
   Zn19       1.0     0.895372     0.815534     0.169734    Uiso  ? Zn
   Zn20       1.0     0.896430     0.787416     0.195325    Uiso  ? Zn
   Zn21       1.0     0.814769     0.822902     0.101424    Uiso  ? Zn
   Zn22       1.0     0.786937     0.797492     0.101274    Uiso  ? Zn
   Zn23       1.0     0.183925     0.889335     0.169563    Uiso  ? Zn
   Zn24       1.0     0.212155     0.885728     0.194120    Uiso  ? Zn
   H97        1.0     0.152434     0.831108     0.893866    Uiso  ? H
   H98        1.0     0.160497     0.841470     0.877248    Uiso  ? H
   H99        1.0     0.847678     0.164634     0.897192    Uiso  ? H
   H100       1.0     0.829630     0.153531     0.100921    Uiso  ? H
   H101       1.0     0.829974     0.103141     0.859620    Uiso  ? H
   H102       1.0     0.836515     0.121766     0.846640    Uiso  ? H
   H103       1.0     0.111436     0.161044     0.848927    Uiso  ? H
   H104       1.0     0.897903     0.146889     0.833815    Uiso  ? H
   H105       1.0     0.158446     0.104384     0.151940    Uiso  ? H
   H106       1.0     0.170819     0.892622     0.137785    Uiso  ? H
   H107       1.0     0.894268     0.158888     0.152865    Uiso  ? H
   H108       1.0     0.112673     0.145488     0.163236    Uiso  ? H
   H109       1.0     0.158639     0.161401     0.105375    Uiso  ? H
   H110       1.0     0.169221     0.144553     0.893084    Uiso  ? H
   H111       1.0     0.105664     0.845282     0.156993    Uiso  ? H
   H112       1.0     0.881888     0.838819     0.151038    Uiso  ? H
   H113       1.0     0.851389     0.103608     0.164314    Uiso  ? H
   H114       1.0     0.836335     0.891866     0.151205    Uiso  ? H
   H115       1.0     0.843304     0.837544     0.891279    Uiso  ? H
   H116       1.0     0.830595     0.853997     0.100035    Uiso  ? H
   H117       1.0     0.167401     0.891678     0.844711    Uiso  ? H
   H118       1.0     0.149746     0.891017     0.830803    Uiso  ? H
   H119       1.0     0.107175     0.840863     0.841140    Uiso  ? H
   H120       1.0     0.102216     0.856483     0.827824    Uiso  ? H
   C193       1.0     0.864379     0.386003     0.432191    Uiso  ? C
   C194       1.0     0.846871     0.379850     0.440399    Uiso  ? C
   C195       1.0     0.839124     0.362986     0.434975    Uiso  ? C
   H121       1.0     0.846624     0.354348     0.424921    Uiso  ? H
   C196       1.0     0.821467     0.357341     0.441001    Uiso  ? C
   H122       1.0     0.815901     0.344692     0.436727    Uiso  ? H
   C197       1.0     0.812212     0.368033     0.455000    Uiso  ? C
   H123       1.0     0.798190     0.364680     0.459086    Uiso  ? H
   C198       1.0     0.820049     0.384935     0.461471    Uiso  ? C
   C199       1.0     0.837677     0.391240     0.453560    Uiso  ? C
   H124       1.0     0.842666     0.404521     0.457966    Uiso  ? H
   C200       1.0     0.811473     0.395964     0.477240    Uiso  ? C
   C201       1.0     0.866094     0.419074     0.397428    Uiso  ? C
   C202       1.0     0.850463     0.429409     0.388061    Uiso  ? C
   C203       1.0     0.841655     0.421726     0.371559    Uiso  ? C
   H125       1.0     0.845897     0.408271     0.365123    Uiso  ? H
   C204       1.0     0.826882     0.431402     0.362951    Uiso  ? C
   H126       1.0     0.820861     0.425327     0.350432    Uiso  ? H
   C205       1.0     0.821314     0.448870     0.369710    Uiso  ? C
   H127       1.0     0.809873     0.456858     0.363593    Uiso  ? H
   C206       1.0     0.830840     0.456855     0.385137    Uiso  ? C
   C207       1.0     0.844802     0.446764     0.394287    Uiso  ? C
   H128       1.0     0.850331     0.451604     0.407412    Uiso  ? H
   C208       1.0     0.823167     0.474296     0.393545    Uiso  ? C
   C209       1.0     0.122053     0.415432     0.399154    Uiso  ? C
   C210       1.0     0.138296     0.423593     0.388258    Uiso  ? C
   C211       1.0     0.143865     0.416611     0.370913    Uiso  ? C
   H129       1.0     0.135433     0.404893     0.364704    Uiso  ? H
   C212       1.0     0.160018     0.422742     0.361993    Uiso  ? C
   H130       1.0     0.162770     0.416656     0.348511    Uiso  ? H
   C213       1.0     0.171098     0.436709     0.369347    Uiso  ? C
   H131       1.0     0.181532     0.443095     0.360918    Uiso  ? H
   C214       1.0     0.166511     0.443949     0.387600    Uiso  ? C
   C215       1.0     0.149933     0.437706     0.396374    Uiso  ? C
   H132       1.0     0.145847     0.443933     0.409819    Uiso  ? H
   C216       1.0     0.175759     0.460825     0.395103    Uiso  ? C
   C217       1.0     0.115992     0.382309     0.432794    Uiso  ? C
   C218       1.0     0.127742     0.371374     0.444367    Uiso  ? C
   C219       1.0     0.130793     0.351493     0.441618    Uiso  ? C
   H133       1.0     0.124665     0.344666     0.429646    Uiso  ? H
   C220       1.0     0.144801     0.342621     0.452426    Uiso  ? C
   H134       1.0     0.148032     0.329083     0.448059    Uiso  ? H
   C221       1.0     0.155392     0.352564     0.464954    Uiso  ? C
   H135       1.0     0.166760     0.345689     0.471427    Uiso  ? H
   C222       1.0     0.151579     0.371321     0.469708    Uiso  ? C
   C223       1.0     0.137155     0.380418     0.460213    Uiso  ? C
   H136       1.0     0.132438     0.394298     0.464755    Uiso  ? H
   C224       1.0     0.164046     0.382756     0.482598    Uiso  ? C
   C225       1.0     0.782851     0.436121     0.526445    Uiso  ? C
   C226       1.0     0.774184     0.448485     0.540942    Uiso  ? C
   C227       1.0     0.755115     0.446324     0.544872    Uiso  ? C
   H137       1.0     0.745980     0.435423     0.538710    Uiso  ? H
   C228       1.0     0.746349     0.457835     0.557418    Uiso  ? C
   H138       1.0     0.731853     0.456123     0.560162    Uiso  ? H
   C229       1.0     0.757132     0.472073     0.565954    Uiso  ? C
   H139       1.0     0.749391     0.481672     0.575354    Uiso  ? H
   C230       1.0     0.775820     0.474324     0.562200    Uiso  ? C
   C231       1.0     0.784628     0.462157     0.549552    Uiso  ? C
   H140       1.0     0.799863     0.463098     0.545978    Uiso  ? H
   C232       1.0     0.786383     0.488536     0.572309    Uiso  ? C
   C233       1.0     0.779863     0.435956     0.479363    Uiso  ? C
   C234       1.0     0.771384     0.446891     0.464471    Uiso  ? C
   C235       1.0     0.752073     0.446215     0.460708    Uiso  ? C
   H141       1.0     0.742899     0.439117     0.470186    Uiso  ? H
   C236       1.0     0.745176     0.457107     0.447168    Uiso  ? C
   H142       1.0     0.730053     0.456778     0.443667    Uiso  ? H
   C237       1.0     0.755999     0.466716     0.434336    Uiso  ? C
   H143       1.0     0.749676     0.474166     0.422791    Uiso  ? H
   C238       1.0     0.775294     0.468203     0.437917    Uiso  ? C
   C239       1.0     0.782637     0.459309     0.453873    Uiso  ? C
   H144       1.0     0.796757     0.462033     0.458234    Uiso  ? H
   C240       1.0     0.787944     0.479201     0.426384    Uiso  ? C
   C241       1.0     0.810571     0.396611     0.526797    Uiso  ? C
   C242       1.0     0.818437     0.387583     0.543736    Uiso  ? C
   C243       1.0     0.811081     0.370937     0.551500    Uiso  ? C
   H145       1.0     0.800405     0.362922     0.542796    Uiso  ? H
   C244       1.0     0.817030     0.363706     0.568510    Uiso  ? C
   H146       1.0     0.812190     0.351143     0.573210    Uiso  ? H
   C245       1.0     0.831883     0.373135     0.578163    Uiso  ? C
   H147       1.0     0.837414     0.367676     0.590637    Uiso  ? H
   C246       1.0     0.839214     0.389545     0.570984    Uiso  ? C
   C247       1.0     0.831920     0.396620     0.553831    Uiso  ? C
   H148       1.0     0.838916     0.408797     0.548032    Uiso  ? H
   C248       1.0     0.856870     0.397924     0.579160    Uiso  ? C
   C249       1.0     0.791015     0.527629     0.423799    Uiso  ? C
   C250       1.0     0.783084     0.544829     0.432228    Uiso  ? C
   C251       1.0     0.764194     0.550131     0.429815    Uiso  ? C
   H149       1.0     0.754275     0.540291     0.422119    Uiso  ? H
   C252       1.0     0.756282     0.564777     0.439374    Uiso  ? C
   H150       1.0     0.741335     0.566703     0.440071    Uiso  ? H
   C253       1.0     0.767077     0.576332     0.451054    Uiso  ? C
   H151       1.0     0.760851     0.589448     0.456246    Uiso  ? H
   C254       1.0     0.785858     0.571033     0.454937    Uiso  ? C
   C255       1.0     0.793732     0.555967     0.445151    Uiso  ? C
   H152       1.0     0.808549     0.553107     0.446954    Uiso  ? H
   C256       1.0     0.796714     0.580791     0.469659    Uiso  ? C
   C257       1.0     0.827660     0.522580     0.391261    Uiso  ? C
   C258       1.0     0.839064     0.536332     0.379971    Uiso  ? C
   C259       1.0     0.835229     0.539836     0.361664    Uiso  ? C
   H153       1.0     0.823181     0.531868     0.356112    Uiso  ? H
   C260       1.0     0.844840     0.552823     0.350814    Uiso  ? C
   H154       1.0     0.840724     0.557631     0.337337    Uiso  ? H
   C261       1.0     0.859344     0.563002     0.359725    Uiso  ? C
   H155       1.0     0.865212     0.574272     0.352077    Uiso  ? H
   C262       1.0     0.865048     0.558933     0.378114    Uiso  ? C
   C263       1.0     0.854280     0.546378     0.388500    Uiso  ? C
   H156       1.0     0.857649     0.543251     0.403404    Uiso  ? H
   C264       1.0     0.882213     0.567396     0.386398    Uiso  ? C
   C265       1.0     0.860895     0.434062     0.610331    Uiso  ? C
   C266       1.0     0.847257     0.446274     0.619978    Uiso  ? C
   C267       1.0     0.844010     0.443921     0.639085    Uiso  ? C
   H157       1.0     0.851279     0.432924     0.646577    Uiso  ? H
   C268       1.0     0.832691     0.457037     0.648238    Uiso  ? C
   H158       1.0     0.830980     0.456762     0.663156    Uiso  ? H
   C269       1.0     0.824954     0.472360     0.639015    Uiso  ? C
   H159       1.0     0.818102     0.482551     0.647131    Uiso  ? H
   C270       1.0     0.828870     0.475265     0.620186    Uiso  ? C
   C271       1.0     0.839631     0.462350     0.610686    Uiso  ? C
   H160       1.0     0.844054     0.465119     0.596597    Uiso  ? H
   C272       1.0     0.820712     0.490704     0.609776    Uiso  ? C
   C273       1.0     0.111618     0.394720     0.575662    Uiso  ? C
   C274       1.0     0.127332     0.383167     0.567365    Uiso  ? C
   C275       1.0     0.131511     0.365625     0.575425    Uiso  ? C
   H161       1.0     0.123596     0.358501     0.586117    Uiso  ? H
   C276       1.0     0.146753     0.356286     0.568162    Uiso  ? C
   H162       1.0     0.150919     0.343077     0.574436    Uiso  ? H
   C277       1.0     0.157293     0.363249     0.553076    Uiso  ? C
   H163       1.0     0.168708     0.354877     0.548947    Uiso  ? H
   C278       1.0     0.152581     0.379698     0.544580    Uiso  ? C
   C279       1.0     0.137878     0.389955     0.552308    Uiso  ? C
   H164       1.0     0.136123     0.403962     0.546888    Uiso  ? H
   C280       1.0     0.163372     0.387960     0.528341    Uiso  ? C
   C281       1.0     0.204800     0.413470     0.479057    Uiso  ? C
   C282       1.0     0.215031     0.422311     0.463320    Uiso  ? C
   C283       1.0     0.232401     0.415194     0.458264    Uiso  ? C
   H165       1.0     0.237021     0.403122     0.465256    Uiso  ? H
   C284       1.0     0.241343     0.422738     0.442987    Uiso  ? C
   H166       1.0     0.254855     0.415519     0.439282    Uiso  ? H
   C285       1.0     0.234872     0.438491     0.433931    Uiso  ? C
   H167       1.0     0.243024     0.444266     0.422378    Uiso  ? H
   C286       1.0     0.217466     0.446209     0.438988    Uiso  ? C
   C287       1.0     0.206686     0.437242     0.452553    Uiso  ? C
   H168       1.0     0.192444     0.441085     0.454668    Uiso  ? H
   C288       1.0     0.209502     0.461765     0.428005    Uiso  ? C
   O109       1.0     0.873514     0.400065     0.439507    Uiso  ? O
   O110       1.0     0.869909     0.379358     0.415438    Uiso  ? O
   O111       1.0     0.874874     0.427091     0.411818    Uiso  ? O
   O112       1.0     0.870912     0.402732     0.391940    Uiso  ? O
   O113       1.0     0.116812     0.422776     0.414870    Uiso  ? O
   O114       1.0     0.111222     0.402343     0.392081    Uiso  ? O
   O115       1.0     0.111287     0.398701     0.438548    Uiso  ? O
   O116       1.0     0.108904     0.375239     0.416600    Uiso  ? O
   O117       1.0     0.800381     0.439107     0.521108    Uiso  ? O
   O118       1.0     0.773232     0.422029     0.519192    Uiso  ? O
   O119       1.0     0.797472     0.439832     0.484491    Uiso  ? O
   O120       1.0     0.771191     0.421349     0.486077    Uiso  ? O
   O121       1.0     0.820636     0.410512     0.484180    Uiso  ? O
   O122       1.0     0.794466     0.392858     0.483647    Uiso  ? O
   O123       1.0     0.820461     0.409011     0.518672    Uiso  ? O
   O124       1.0     0.793274     0.392791     0.521688    Uiso  ? O
   O125       1.0     0.806495     0.521067     0.430799    Uiso  ? O
   O126       1.0     0.783063     0.519646     0.409350    Uiso  ? O
   O127       1.0     0.834049     0.515199     0.406994    Uiso  ? O
   O128       1.0     0.809923     0.519364     0.386090    Uiso  ? O
   O129       1.0     0.830481     0.480871     0.408468    Uiso  ? O
   O130       1.0     0.809950     0.482996     0.384993    Uiso  ? O
   O131       1.0     0.804009     0.484642     0.433526    Uiso  ? O
   O132       1.0     0.781855     0.485349     0.410367    Uiso  ? O
   O133       1.0     0.867634     0.439625     0.594314    Uiso  ? O
   O134       1.0     0.866548     0.418890     0.618567    Uiso  ? O
   O135       1.0     0.865571     0.411189     0.570707    Uiso  ? O
   O136       1.0     0.862674     0.392194     0.595108    Uiso  ? O
   O137       1.0     0.107424     0.411254     0.569297    Uiso  ? O
   O138       1.0     0.103127     0.389171     0.591069    Uiso  ? O
   O139       1.0     0.108214     0.436983     0.592997    Uiso  ? O
   O140       1.0     0.106561     0.416573     0.616956    Uiso  ? O
   O141       1.0     0.160196     0.404682     0.521683    Uiso  ? O
   O142       1.0     0.178542     0.378770     0.523223    Uiso  ? O
   O143       1.0     0.159606     0.399759     0.488037    Uiso  ? O
   O144       1.0     0.180102     0.375423     0.487780    Uiso  ? O
   O145       1.0     0.189789     0.421923     0.485133    Uiso  ? O
   O146       1.0     0.210775     0.398303     0.487717    Uiso  ? O
   O147       1.0     0.186101     0.425690     0.522298    Uiso  ? O
   O148       1.0     0.205824     0.400863     0.524119    Uiso  ? O
   O149       1.0     0.830129     0.529130     0.587308    Uiso  ? O
   O150       1.0     0.808322     0.532159     0.610049    Uiso  ? O
   O151       1.0     0.803707     0.526666     0.562080    Uiso  ? O
   O152       1.0     0.784152     0.534224     0.586961    Uiso  ? O
   O153       1.0     0.803899     0.491968     0.567501    Uiso  ? O
   O154       1.0     0.778711     0.498326     0.585663    Uiso  ? O
   O155       1.0     0.829271     0.496904     0.594420    Uiso  ? O
   O156       1.0     0.803091     0.495956     0.612696    Uiso  ? O
   O157       1.0     0.891141     0.434742     0.442977    Uiso  ? O
   O158       1.0     0.834187     0.440995     0.503461    Uiso  ? O
   O159       1.0     0.838727     0.499281     0.441085    Uiso  ? O
   O160       1.0     0.883862     0.443233     0.560470    Uiso  ? O
   O161       1.0     0.159052     0.436167     0.496518    Uiso  ? O
   O162       1.0     0.837137     0.505114     0.559746    Uiso  ? O
   Zn25       1.0     0.891316     0.414867     0.426979    Uiso  ? Zn
   Zn26       1.0     0.888821     0.387455     0.401793    Uiso  ? Zn
   Zn27       1.0     0.813031     0.427766     0.501812    Uiso  ? Zn
   Zn28       1.0     0.782199     0.404125     0.502417    Uiso  ? Zn
   Zn29       1.0     0.820462     0.500000     0.422388    Uiso  ? Zn
   Zn30       1.0     0.794897     0.500958     0.395009    Uiso  ? Zn
   Zn31       1.0     0.885436     0.427377     0.579289    Uiso  ? Zn
   Zn32       1.0     0.883362     0.402176     0.607300    Uiso  ? Zn
   Zn33       1.0     0.173334     0.415296     0.502719    Uiso  ? Zn
   Zn34       1.0     0.196054     0.386091     0.506154    Uiso  ? Zn
   Zn35       1.0     0.818553     0.510467     0.576171    Uiso  ? Zn
   Zn36       1.0     0.790494     0.514861     0.601783    Uiso  ? Zn
   C289       1.0     0.133811     0.610391     0.566390    Uiso  ? C
   C290       1.0     0.150167     0.619486     0.556609    Uiso  ? C
   C291       1.0     0.156635     0.637225     0.561467    Uiso  ? C
   H169       1.0     0.150291     0.645763     0.571759    Uiso  ? H
   C292       1.0     0.170953     0.645069     0.551731    Uiso  ? C
   H170       1.0     0.175993     0.659072     0.556101    Uiso  ? H
   C293       1.0     0.181116     0.635256     0.538667    Uiso  ? C
   H171       1.0     0.192824     0.642289     0.533002    Uiso  ? H
   C294       1.0     0.174908     0.616960     0.534202    Uiso  ? C
   C295       1.0     0.159429     0.609232     0.543464    Uiso  ? C
   H172       1.0     0.153334     0.595854     0.538952    Uiso  ? H
   C296       1.0     0.184493     0.605907     0.518994    Uiso  ? C
   C297       1.0     0.130087     0.578796     0.602811    Uiso  ? C
   C298       1.0     0.143919     0.567934     0.614383    Uiso  ? C
   C299       1.0     0.151219     0.575291     0.631623    Uiso  ? C
   H173       1.0     0.147009     0.588154     0.637887    Uiso  ? H
   C300       1.0     0.165502     0.566220     0.640279    Uiso  ? C
   H174       1.0     0.170849     0.572396     0.653567    Uiso  ? H
   C301       1.0     0.173971     0.550513     0.632346    Uiso  ? C
   H175       1.0     0.184909     0.545055     0.640636    Uiso  ? H
   C302       1.0     0.166987     0.542498     0.615518    Uiso  ? C
   C303       1.0     0.151771     0.551996     0.606664    Uiso  ? C
   H176       1.0     0.145480     0.547026     0.594227    Uiso  ? H
   C304       1.0     0.174438     0.525283     0.606596    Uiso  ? C
   C305       1.0     0.876651     0.581887     0.600028    Uiso  ? C
   C306       1.0     0.861331     0.572865     0.611232    Uiso  ? C
   C307       1.0     0.855930     0.580266     0.628062    Uiso  ? C
   H177       1.0     0.863999     0.591828     0.634774    Uiso  ? H
   C308       1.0     0.840135     0.572473     0.637258    Uiso  ? C
   H178       1.0     0.837305     0.578631     0.651374    Uiso  ? H
   C309       1.0     0.830731     0.557052     0.629954    Uiso  ? C
   H179       1.0     0.818080     0.552473     0.636987    Uiso  ? H
   C310       1.0     0.835239     0.550550     0.612643    Uiso  ? C
   C311       1.0     0.851006     0.557903     0.603166    Uiso  ? C
   H180       1.0     0.853177     0.554230     0.588443    Uiso  ? H
   C312       1.0     0.824103     0.537408     0.602674    Uiso  ? C
   C313       1.0     0.882998     0.615568     0.564144    Uiso  ? C
   C314       1.0     0.869679     0.627570     0.553699    Uiso  ? C
   C315       1.0     0.869451     0.647317     0.555389    Uiso  ? C
   H181       1.0     0.878740     0.655066     0.564405    Uiso  ? H
   C316       1.0     0.858702     0.657268     0.542869    Uiso  ? C
   H182       1.0     0.861091     0.672121     0.542364    Uiso  ? H
   C317       1.0     0.847145     0.648353     0.529678    Uiso  ? C
   H183       1.0     0.840310     0.655985     0.519476    Uiso  ? H
   C318       1.0     0.846482     0.628592     0.528572    Uiso  ? C
   C319       1.0     0.858069     0.618565     0.540643    Uiso  ? C
   H184       1.0     0.859003     0.603117     0.539463    Uiso  ? H
   C320       1.0     0.834939     0.618046     0.514467    Uiso  ? C
   C321       1.0     0.215104     0.567029     0.467917    Uiso  ? C
   C322       1.0     0.224770     0.554069     0.454429    Uiso  ? C
   C323       1.0     0.244295     0.555607     0.451517    Uiso  ? C
   H185       1.0     0.252798     0.565683     0.458941    Uiso  ? H
   C324       1.0     0.253626     0.542173     0.440645    Uiso  ? C
   H186       1.0     0.268155     0.542485     0.438359    Uiso  ? H
   C325       1.0     0.243699     0.527065     0.432283    Uiso  ? C
   H187       1.0     0.251203     0.516200     0.424209    Uiso  ? H
   C326       1.0     0.223829     0.526353     0.434706    Uiso  ? C
   C327       1.0     0.214970     0.539796     0.445301    Uiso  ? C
   H188       1.0     0.199305     0.539966     0.446957    Uiso  ? H
   C328       1.0     0.212591     0.512516     0.423828    Uiso  ? C
   C329       1.0     0.216510     0.567812     0.517880    Uiso  ? C
   C330       1.0     0.225041     0.556934     0.533579    Uiso  ? C
   C331       1.0     0.242368     0.560873     0.540113    Uiso  ? C
   H189       1.0     0.250152     0.571136     0.533398    Uiso  ? H
   C332       1.0     0.250163     0.552486     0.556989    Uiso  ? C
   H190       1.0     0.264440     0.555687     0.562252    Uiso  ? H
   C333       1.0     0.239706     0.537459     0.564728    Uiso  ? C
   H191       1.0     0.244216     0.530621     0.577427    Uiso  ? H
   C334       1.0     0.221568     0.534322     0.558870    Uiso  ? C
   C335       1.0     0.214674     0.542802     0.542367    Uiso  ? C
   H192       1.0     0.199708     0.540412     0.540182    Uiso  ? H
   C336       1.0     0.209145     0.521309     0.569842    Uiso  ? C
   C337       1.0     0.184022     0.602996     0.467926    Uiso  ? C
   C338       1.0     0.174481     0.611824     0.452079    Uiso  ? C
   C339       1.0     0.184086     0.626501     0.442829    Uiso  ? C
   H193       1.0     0.198782     0.630346     0.446964    Uiso  ? H
   C340       1.0     0.176259     0.635158     0.427493    Uiso  ? C
   H194       1.0     0.183477     0.646898     0.421271    Uiso  ? H
   C341       1.0     0.159025     0.628432     0.420451    Uiso  ? C
   H195       1.0     0.153379     0.635840     0.408340    Uiso  ? H
   C342       1.0     0.149999     0.613232     0.428723    Uiso  ? C
   C343       1.0     0.158035     0.604642     0.444541    Uiso  ? C
   H196       1.0     0.152938     0.590880     0.449769    Uiso  ? H
   C344       1.0     0.134241     0.603448     0.418523    Uiso  ? C
   C345       1.0     0.202849     0.470483     0.576388    Uiso  ? C
   C346       1.0     0.211110     0.452171     0.569077    Uiso  ? C
   C347       1.0     0.224865     0.441912     0.578400    Uiso  ? C
   H197       1.0     0.231630     0.447657     0.590936    Uiso  ? H
   C348       1.0     0.231006     0.424549     0.572360    Uiso  ? C
   H198       1.0     0.241868     0.417886     0.579896    Uiso  ? H
   C349       1.0     0.224781     0.417620     0.555119    Uiso  ? C
   H199       1.0     0.231391     0.405881     0.549210    Uiso  ? H
   C350       1.0     0.209431     0.426367     0.546080    Uiso  ? C
   C351       1.0     0.203508     0.444402     0.553061    Uiso  ? C
   H200       1.0     0.192192     0.450883     0.546084    Uiso  ? H
   C352       1.0     0.200156     0.417164     0.529950    Uiso  ? C
   C353       1.0     0.165581     0.479312     0.606641    Uiso  ? C
   C354       1.0     0.153591     0.465787     0.617230    Uiso  ? C
   C355       1.0     0.159727     0.460311     0.635454    Uiso  ? C
   H201       1.0     0.172166     0.467069     0.641775    Uiso  ? H
   C356       1.0     0.150573     0.446650     0.645779    Uiso  ? C
   H202       1.0     0.155101     0.442191     0.659095    Uiso  ? H
   C357       1.0     0.135292     0.436827     0.637626    Uiso  ? C
   H203       1.0     0.127846     0.425687     0.644735    Uiso  ? H
   C358       1.0     0.129411     0.441081     0.618977    Uiso  ? C
   C359       1.0     0.138639     0.455682     0.609111    Uiso  ? C
   H204       1.0     0.133738     0.459485     0.595613    Uiso  ? H
   C360       1.0     0.112957     0.431989     0.609992    Uiso  ? C
   C361       1.0     0.135156     0.568012     0.385468    Uiso  ? C
   C362       1.0     0.149227     0.554647     0.376753    Uiso  ? C
   C363       1.0     0.155346     0.558202     0.359166    Uiso  ? C
   H205       1.0     0.150063     0.568988     0.351062    Uiso  ? H
   C364       1.0     0.167666     0.546067     0.349849    Uiso  ? C
   H206       1.0     0.169241     0.547630     0.334637    Uiso  ? H
   C365       1.0     0.174835     0.529858     0.359588    Uiso  ? C
   H207       1.0     0.180434     0.519995     0.350372    Uiso  ? H
   C366       1.0     0.170039     0.526858     0.378258    Uiso  ? C
   C367       1.0     0.156780     0.538537     0.386390    Uiso  ? C
   H208       1.0     0.152949     0.536403     0.399855    Uiso  ? H
   C368       1.0     0.178695     0.511885     0.389504    Uiso  ? C
   C369       1.0     0.881356     0.606533     0.414112    Uiso  ? C
   C370       1.0     0.867560     0.617898     0.424601    Uiso  ? C
   C371       1.0     0.863289     0.636208     0.419009    Uiso  ? C
   H209       1.0     0.870261     0.643092     0.406707    Uiso  ? H
   C372       1.0     0.848653     0.646455     0.427972    Uiso  ? C
   H210       1.0     0.844515     0.660269     0.422400    Uiso  ? H
   C373       1.0     0.839490     0.638976     0.443218    Uiso  ? C
   H211       1.0     0.829375     0.647365     0.449593    Uiso  ? H
   C374       1.0     0.843016     0.620263     0.449321    Uiso  ? C
   C375       1.0     0.857159     0.610353     0.440512    Uiso  ? C
   H212       1.0     0.860468     0.595728     0.443621    Uiso  ? H
   C376       1.0     0.833210     0.613053     0.466163    Uiso  ? C
   C377       1.0     0.797373     0.583296     0.516956    Uiso  ? C
   C378       1.0     0.786449     0.574882     0.532569    Uiso  ? C
   C379       1.0     0.770136     0.583201     0.537915    Uiso  ? C
   H213       1.0     0.762780     0.593818     0.530125    Uiso  ? H
   C380       1.0     0.760953     0.577339     0.553890    Uiso  ? C
   H214       1.0     0.748046     0.584647     0.557481    Uiso  ? H
   C381       1.0     0.766753     0.561801     0.564066    Uiso  ? C
   H215       1.0     0.758525     0.557243     0.576391    Uiso  ? H
   C382       1.0     0.782556     0.552068     0.558279    Uiso  ? C
   C383       1.0     0.792601     0.558762     0.542245    Uiso  ? C
   H216       1.0     0.805713     0.553001     0.538591    Uiso  ? H
   C384       1.0     0.789923     0.536909     0.569490    Uiso  ? C
   O163       1.0     0.126317     0.595185     0.561043    Uiso  ? O
   O164       1.0     0.128173     0.617103     0.582261    Uiso  ? O
   O165       1.0     0.124206     0.573011     0.586479    Uiso  ? O
   O166       1.0     0.122929     0.593280     0.610002    Uiso  ? O
   O167       1.0     0.882798     0.574079     0.585328    Uiso  ? O
   O168       1.0     0.883842     0.597203     0.606434    Uiso  ? O
   O169       1.0     0.886311     0.598331     0.558597    Uiso  ? O
   O170       1.0     0.889594     0.621519     0.579520    Uiso  ? O
   O171       1.0     0.198280     0.562914     0.475535    Uiso  ? O
   O172       1.0     0.223241     0.582958     0.474184    Uiso  ? O
   O173       1.0     0.200769     0.562550     0.511389    Uiso  ? O
   O174       1.0     0.225946     0.582255     0.511332    Uiso  ? O
   O175       1.0     0.176814     0.589870     0.512785    Uiso  ? O
   O176       1.0     0.201402     0.611379     0.513154    Uiso  ? O
   O177       1.0     0.175801     0.588866     0.476693    Uiso  ? O
   O178       1.0     0.199091     0.609867     0.474803    Uiso  ? O
   O179       1.0     0.188138     0.477287     0.568482    Uiso  ? O
   O180       1.0     0.210855     0.478062     0.590098    Uiso  ? O
   O181       1.0     0.161155     0.484452     0.589511    Uiso  ? O
   O182       1.0     0.183207     0.482525     0.613020    Uiso  ? O
   O183       1.0     0.168355     0.519061     0.589684    Uiso  ? O
   O184       1.0     0.189220     0.516438     0.614451    Uiso  ? O
   O185       1.0     0.194273     0.514005     0.562189    Uiso  ? O
   O186       1.0     0.213638     0.516312     0.586656    Uiso  ? O
   O187       1.0     0.127248     0.562970     0.401035    Uiso  ? O
   O188       1.0     0.130018     0.583254     0.377730    Uiso  ? O
   O189       1.0     0.126326     0.588730     0.425754    Uiso  ? O
   O190       1.0     0.130274     0.609590     0.401023    Uiso  ? O
   O191       1.0     0.887153     0.590977     0.422094    Uiso  ? O
   O192       1.0     0.890061     0.612371     0.398575    Uiso  ? O
   O193       1.0     0.887462     0.563450     0.403289    Uiso  ? O
   O194       1.0     0.889424     0.582231     0.377744    Uiso  ? O
   O195       1.0     0.839591     0.598140     0.473906    Uiso  ? O
   O196       1.0     0.818713     0.621460     0.472817    Uiso  ? O
   O197       1.0     0.838914     0.600872     0.510601    Uiso  ? O
   O198       1.0     0.820416     0.626240     0.507124    Uiso  ? O
   O199       1.0     0.811788     0.575394     0.508815    Uiso  ? O
   O200       1.0     0.793661     0.600717     0.512327    Uiso  ? O
   O201       1.0     0.813323     0.574415     0.474097    Uiso  ? O
   O202       1.0     0.790335     0.597282     0.476225    Uiso  ? O
   O203       1.0     0.167308     0.472404     0.406786    Uiso  ? O
   O204       1.0     0.192890     0.465497     0.389557    Uiso  ? O
   O205       1.0     0.193637     0.469936     0.433198    Uiso  ? O
   O206       1.0     0.217000     0.468024     0.411737    Uiso  ? O
   O207       1.0     0.196343     0.507424     0.429273    Uiso  ? O
   O208       1.0     0.219792     0.503753     0.409956    Uiso  ? O
   O209       1.0     0.172748     0.508655     0.406318    Uiso  ? O
   O210       1.0     0.193175     0.503063     0.382736    Uiso  ? O
   O211       1.0     0.107195     0.565345     0.553612    Uiso  ? O
   O212       1.0     0.168066     0.556380     0.494772    Uiso  ? O
   O213       1.0     0.159954     0.504334     0.556317    Uiso  ? O
   O214       1.0     0.108784     0.557899     0.435416    Uiso  ? O
   O215       1.0     0.846804     0.566231     0.494648    Uiso  ? O
   O216       1.0     0.162801     0.490679     0.440948    Uiso  ? O
   Zn37       1.0     0.106123     0.582829     0.570807    Uiso  ? Zn
   Zn38       1.0     0.107655     0.609593     0.596758    Uiso  ? Zn
   Zn39       1.0     0.186236     0.574473     0.494135    Uiso  ? Zn
   Zn40       1.0     0.215755     0.599812     0.493781    Uiso  ? Zn
   Zn41       1.0     0.177159     0.500220     0.574850    Uiso  ? Zn
   Zn42       1.0     0.200907     0.498725     0.602273    Uiso  ? Zn
   Zn43       1.0     0.108884     0.574235     0.415817    Uiso  ? Zn
   Zn44       1.0     0.111928     0.599082     0.386007    Uiso  ? Zn
   Zn45       1.0     0.828298     0.584725     0.492298    Uiso  ? Zn
   Zn46       1.0     0.803132     0.613558     0.491665    Uiso  ? Zn
   Zn47       1.0     0.180839     0.488713     0.421786    Uiso  ? Zn
   Zn48       1.0     0.207567     0.485277     0.395625    Uiso  ? Zn
   H217       1.0     0.164637     0.555947     0.507797    Uiso  ? H
   H218       1.0     0.175768     0.544959     0.492279    Uiso  ? H
   H219       1.0     0.830639     0.454672     0.504068    Uiso  ? H
   H220       1.0     0.839826     0.439954     0.490909    Uiso  ? H
   H221       1.0     0.849388     0.502114     0.566232    Uiso  ? H
   H222       1.0     0.840085     0.515868     0.551782    Uiso  ? H
   H223       1.0     0.874301     0.439153     0.552453    Uiso  ? H
   H224       1.0     0.879286     0.455007     0.565313    Uiso  ? H
   H225       1.0     0.157987     0.503216     0.438960    Uiso  ? H
   H226       1.0     0.153540     0.481310     0.435500    Uiso  ? H
   H227       1.0     0.105402     0.443509     0.442566    Uiso  ? H
   H228       1.0     0.892761     0.428701     0.455885    Uiso  ? H
   H229       1.0     0.152987     0.433900     0.483819    Uiso  ? H
   H230       1.0     0.168121     0.445945     0.494978    Uiso  ? H
   H231       1.0     0.106085     0.564724     0.447040    Uiso  ? H
   H232       1.0     0.122919     0.555610     0.434815    Uiso  ? H
   H233       1.0     0.849612     0.494711     0.434576    Uiso  ? H
   H234       1.0     0.835631     0.489638     0.451056    Uiso  ? H
   H235       1.0     0.848644     0.565719     0.508019    Uiso  ? H
   H236       1.0     0.839950     0.554764     0.491897    Uiso  ? H
   H237       1.0     0.148104     0.507843     0.561664    Uiso  ? H
   H238       1.0     0.158133     0.492379     0.549687    Uiso  ? H
   H239       1.0     0.890694     0.565362     0.547735    Uiso  ? H
   H240       1.0     0.107395     0.553279     0.560376    Uiso  ? H
   C385       1.0     0.598194     0.870375     0.417115    Uiso  ? C
   C386       1.0     0.607343     0.855040     0.426465    Uiso  ? C
   C387       1.0     0.623616     0.847372     0.417781    Uiso  ? C
   H241       1.0     0.628311     0.849411     0.402899    Uiso  ? H
   C388       1.0     0.634166     0.833450     0.427903    Uiso  ? C
   H242       1.0     0.646274     0.828675     0.421386    Uiso  ? H
   C389       1.0     0.627685     0.826575     0.445088    Uiso  ? C
   H243       1.0     0.635699     0.815875     0.452441    Uiso  ? H
   C390       1.0     0.611211     0.833245     0.452601    Uiso  ? C
   C391       1.0     0.601722     0.848726     0.444272    Uiso  ? C
   H244       1.0     0.589458     0.854908     0.450616    Uiso  ? H
   C392       1.0     0.602675     0.824091     0.469964    Uiso  ? C
   C393       1.0     0.561062     0.874624     0.386545    Uiso  ? C
   C394       1.0     0.550365     0.858845     0.377536    Uiso  ? C
   C395       1.0     0.553695     0.852121     0.359883    Uiso  ? C
   H245       1.0     0.563741     0.858853     0.351351    Uiso  ? H
   C396       1.0     0.547322     0.834621     0.354683    Uiso  ? C
   H246       1.0     0.549451     0.828930     0.341404    Uiso  ? H
   C397       1.0     0.534168     0.824978     0.366129    Uiso  ? C
   H247       1.0     0.529186     0.811493     0.361972    Uiso  ? H
   C398       1.0     0.528271     0.833041     0.382662    Uiso  ? C
   C399       1.0     0.537610     0.849354     0.388460    Uiso  ? C
   H248       1.0     0.533492     0.855223     0.401915    Uiso  ? H
   C400       1.0     0.513216     0.823419     0.393807    Uiso  ? C
   C401       1.0     0.565589     0.127549     0.386181    Uiso  ? C
   C402       1.0     0.555825     0.143686     0.377369    Uiso  ? C
   C403       1.0     0.560442     0.150501     0.358955    Uiso  ? C
   H249       1.0     0.572697     0.144927     0.352228    Uiso  ? H
   C404       1.0     0.549763     0.164007     0.350342    Uiso  ? C
   H250       1.0     0.553506     0.169688     0.336214    Uiso  ? H
   C405       1.0     0.535617     0.172257     0.360541    Uiso  ? C
   H251       1.0     0.528954     0.184266     0.354308    Uiso  ? H
   C406       1.0     0.530790     0.165890     0.378429    Uiso  ? C
   C407       1.0     0.540456     0.151601     0.386545    Uiso  ? C
   H252       1.0     0.534655     0.143542     0.398986    Uiso  ? H
   C408       1.0     0.515132     0.175544     0.388787    Uiso  ? C
   C409       1.0     0.603427     0.124345     0.418452    Uiso  ? C
   C410       1.0     0.614878     0.139043     0.428177    Uiso  ? C
   C411       1.0     0.632859     0.142810     0.422945    Uiso  ? C
   H253       1.0     0.637539     0.136530     0.409683    Uiso  ? H
   C412       1.0     0.644498     0.154522     0.434153    Uiso  ? C
   H254       1.0     0.658158     0.156491     0.430816    Uiso  ? H
   C413       1.0     0.636630     0.164621     0.449104    Uiso  ? C
   H255       1.0     0.645637     0.174629     0.456565    Uiso  ? H
   C414       1.0     0.618270     0.161911     0.453857    Uiso  ? C
   C415       1.0     0.607587     0.147321     0.444720    Uiso  ? C
   H256       1.0     0.593098     0.145012     0.448578    Uiso  ? H
   C416       1.0     0.608674     0.173114     0.469057    Uiso  ? C
   C417       1.0     0.576668     0.792574     0.523989    Uiso  ? C
   C418       1.0     0.566866     0.783494     0.540154    Uiso  ? C
   C419       1.0     0.573408     0.766573     0.548239    Uiso  ? C
   H257       1.0     0.584847     0.759819     0.542143    Uiso  ? H
   C420       1.0     0.564046     0.757186     0.562535    Uiso  ? C
   H258       1.0     0.568912     0.744136     0.568551    Uiso  ? H
   C421       1.0     0.548898     0.765979     0.570882    Uiso  ? C
   H259       1.0     0.542765     0.758513     0.582119    Uiso  ? H
   C422       1.0     0.543075     0.783463     0.564522    Uiso  ? C
   C423       1.0     0.550774     0.791718     0.549475    Uiso  ? C
   H260       1.0     0.546090     0.805577     0.544781    Uiso  ? H
   C424       1.0     0.528252     0.793568     0.574251    Uiso  ? C
   C425       1.0     0.569458     0.789296     0.476795    Uiso  ? C
   C426       1.0     0.558416     0.780706     0.462034    Uiso  ? C
   C427       1.0     0.564522     0.764096     0.454432    Uiso  ? C
   H261       1.0     0.576770     0.756834     0.460189    Uiso  ? H
   C428       1.0     0.554704     0.755306     0.440409    Uiso  ? C
   H262       1.0     0.558738     0.741013     0.435946    Uiso  ? H
   C429       1.0     0.538587     0.763501     0.432823    Uiso  ? C
   H263       1.0     0.531022     0.754339     0.423849    Uiso  ? H
   C430       1.0     0.531893     0.780275     0.440231    Uiso  ? C
   C431       1.0     0.541532     0.788802     0.455689    Uiso  ? C
   H264       1.0     0.537156     0.803122     0.459582    Uiso  ? H
   C432       1.0     0.515252     0.789673     0.430448    Uiso  ? C
   C433       1.0     0.608652     0.827466     0.518926    Uiso  ? C
   C434       1.0     0.620244     0.838049     0.532597    Uiso  ? C
   C435       1.0     0.638865     0.833014     0.537245    Uiso  ? C
   H265       1.0     0.646218     0.821512     0.531563    Uiso  ? H
   C436       1.0     0.648186     0.842126     0.551943    Uiso  ? C
   H266       1.0     0.661232     0.836270     0.555548    Uiso  ? H
   C437       1.0     0.639376     0.856184     0.561881    Uiso  ? C
   H267       1.0     0.646942     0.861798     0.573986    Uiso  ? H
   C438       1.0     0.621019     0.861520     0.557726    Uiso  ? C
   C439       1.0     0.612602     0.853866     0.541958    Uiso  ? C
   H268       1.0     0.599028     0.860327     0.537110    Uiso  ? H
   C440       1.0     0.610701     0.875516     0.569430    Uiso  ? C
   C441       1.0     0.465914     0.791418     0.433016    Uiso  ? C
   C442       1.0     0.451982     0.781291     0.444213    Uiso  ? C
   C443       1.0     0.446957     0.762912     0.440662    Uiso  ? C
   H269       1.0     0.452935     0.754485     0.428796    Uiso  ? H
   C444       1.0     0.432218     0.754637     0.450507    Uiso  ? C
   H270       1.0     0.427214     0.741171     0.446221    Uiso  ? H
   C445       1.0     0.423307     0.764156     0.465268    Uiso  ? C
   H271       1.0     0.410951     0.757506     0.471540    Uiso  ? H
   C446       1.0     0.428846     0.782325     0.469729    Uiso  ? C
   C447       1.0     0.443637     0.791201     0.459867    Uiso  ? C
   H272       1.0     0.447673     0.805114     0.463046    Uiso  ? H
   C448       1.0     0.419825     0.792840     0.484473    Uiso  ? C
   C449       1.0     0.465755     0.825160     0.396821    Uiso  ? C
   C450       1.0     0.448471     0.833853     0.389074    Uiso  ? C
   C451       1.0     0.437392     0.824053     0.376462    Uiso  ? C
   H273       1.0     0.442815     0.810919     0.369924    Uiso  ? H
   C452       1.0     0.419195     0.830386     0.371584    Uiso  ? C
   H274       1.0     0.411087     0.822618     0.361484    Uiso  ? H
   C453       1.0     0.412180     0.846517     0.378407    Uiso  ? C
   H275       1.0     0.397880     0.850725     0.375051    Uiso  ? H
   C454       1.0     0.423149     0.855599     0.392039    Uiso  ? C
   C455       1.0     0.440617     0.850176     0.396567    Uiso  ? C
   H276       1.0     0.448480     0.857120     0.407641    Uiso  ? H
   C456       1.0     0.414063     0.871997     0.401584    Uiso  ? C
   C457       1.0     0.580228     0.875016     0.604031    Uiso  ? C
   C458       1.0     0.572431     0.858134     0.613102    Uiso  ? C
   C459       1.0     0.581709     0.850925     0.628594    Uiso  ? C
   H277       1.0     0.595374     0.856854     0.633444    Uiso  ? H
   C460       1.0     0.573298     0.836343     0.638501    Uiso  ? C
   H278       1.0     0.578344     0.831896     0.651398    Uiso  ? H
   C461       1.0     0.555573     0.828835     0.632019    Uiso  ? C
   H279       1.0     0.547875     0.817775     0.638742    Uiso  ? H
   C462       1.0     0.548092     0.834799     0.614988    Uiso  ? C
   C463       1.0     0.556126     0.850578     0.606498    Uiso  ? C
   H280       1.0     0.550188     0.857847     0.594924    Uiso  ? H
   C464       1.0     0.530800     0.826735     0.607206    Uiso  ? C
   C465       1.0     0.612126     0.128832     0.568716    Uiso  ? C
   C466       1.0     0.622138     0.143289     0.557784    Uiso  ? C
   C467       1.0     0.640186     0.148167     0.562584    Uiso  ? C
   H281       1.0     0.647568     0.143069     0.573727    Uiso  ? H
   C468       1.0     0.650716     0.160545     0.550695    Uiso  ? C
   H282       1.0     0.664681     0.165053     0.555807    Uiso  ? H
   C469       1.0     0.641112     0.169752     0.535848    Uiso  ? C
   H283       1.0     0.646242     0.181462     0.529756    Uiso  ? H
   C470       1.0     0.622550     0.164325     0.531595    Uiso  ? C
   C471       1.0     0.613464     0.150165     0.542327    Uiso  ? C
   H284       1.0     0.599919     0.144875     0.538650    Uiso  ? H
   C472       1.0     0.612290     0.174949     0.516914    Uiso  ? C
   C473       1.0     0.574177     0.208689     0.469821    Uiso  ? C
   C474       1.0     0.562672     0.218208     0.454926    Uiso  ? C
   C475       1.0     0.569694     0.233831     0.444780    Uiso  ? C
   H285       1.0     0.582108     0.240828     0.448332    Uiso  ? H
   C476       1.0     0.560228     0.241247     0.429251    Uiso  ? C
   H286       1.0     0.564729     0.253855     0.422490    Uiso  ? H
   C477       1.0     0.543608     0.232165     0.423112    Uiso  ? C
   H287       1.0     0.535761     0.238485     0.411777    Uiso  ? H
   C478       1.0     0.536144     0.217089     0.432752    Uiso  ? C
   C479       1.0     0.546543     0.209006     0.446988    Uiso  ? C
   H288       1.0     0.540576     0.195960     0.452650    Uiso  ? H
   C480       1.0     0.518632     0.208202     0.425136    Uiso  ? C
   O217       1.0     0.584714     0.879388     0.425803    Uiso  ? O
   O218       1.0     0.602524     0.876115     0.400046    Uiso  ? O
   O219       1.0     0.557124     0.881199     0.403040    Uiso  ? O
   O220       1.0     0.574984     0.881810     0.377068    Uiso  ? O
   O221       1.0     0.559459     0.121992     0.401899    Uiso  ? O
   O222       1.0     0.580344     0.120596     0.378936    Uiso  ? O
   O223       1.0     0.587232     0.119215     0.426299    Uiso  ? O
   O224       1.0     0.608884     0.116549     0.402333    Uiso  ? O
   O225       1.0     0.568859     0.807972     0.518161    Uiso  ? O
   O226       1.0     0.590148     0.784500     0.515829    Uiso  ? O
   O227       1.0     0.562603     0.804201     0.485038    Uiso  ? O
   O228       1.0     0.586670     0.783194     0.480107    Uiso  ? O
   O229       1.0     0.586615     0.830017     0.476497    Uiso  ? O
   O230       1.0     0.610480     0.809639     0.476716    Uiso  ? O
   O231       1.0     0.593168     0.834462     0.512345    Uiso  ? O
   O232       1.0     0.614205     0.810598     0.513975    Uiso  ? O
   O233       1.0     0.472152     0.808111     0.438460    Uiso  ? O
   O234       1.0     0.471498     0.783509     0.417524    Uiso  ? O
   O235       1.0     0.473152     0.831818     0.412113    Uiso  ? O
   O236       1.0     0.470035     0.807811     0.392056    Uiso  ? O
   O237       1.0     0.507857     0.832043     0.408916    Uiso  ? O
   O238       1.0     0.505609     0.807929     0.387284    Uiso  ? O
   O239       1.0     0.509618     0.806217     0.436702    Uiso  ? O
   O240       1.0     0.507874     0.782926     0.415126    Uiso  ? O
   O241       1.0     0.573230     0.881257     0.588382    Uiso  ? O
   O242       1.0     0.593890     0.884727     0.611958    Uiso  ? O
   O243       1.0     0.595883     0.883967     0.563442    Uiso  ? O
   O244       1.0     0.618520     0.881349     0.585774    Uiso  ? O
   O245       1.0     0.595621     0.122627     0.563491    Uiso  ? O
   O246       1.0     0.620560     0.121708     0.583641    Uiso  ? O
   O247       1.0     0.572306     0.120548     0.592269    Uiso  ? O
   O248       1.0     0.597380     0.123735     0.611932    Uiso  ? O
   O249       1.0     0.596157     0.167483     0.511490    Uiso  ? O
   O250       1.0     0.617910     0.191091     0.510764    Uiso  ? O
   O251       1.0     0.592643     0.166532     0.476173    Uiso  ? O
   O252       1.0     0.616387     0.188887     0.474335    Uiso  ? O
   O253       1.0     0.568680     0.192782     0.477331    Uiso  ? O
   O254       1.0     0.589559     0.216261     0.476032    Uiso  ? O
   O255       1.0     0.570939     0.193466     0.512893    Uiso  ? O
   O256       1.0     0.591197     0.218345     0.509154    Uiso  ? O
   O257       1.0     0.488570     0.834653     0.596159    Uiso  ? O
   O258       1.0     0.486201     0.809378     0.615175    Uiso  ? O
   O259       1.0     0.482308     0.809834     0.571356    Uiso  ? O
   O260       1.0     0.487559     0.784850     0.589822    Uiso  ? O
   O261       1.0     0.518885     0.807303     0.565805    Uiso  ? O
   O262       1.0     0.523325     0.787273     0.591089    Uiso  ? O
   O263       1.0     0.524220     0.832349     0.591201    Uiso  ? O
   O264       1.0     0.523272     0.812486     0.615508    Uiso  ? O
   O265       1.0     0.554470     0.104110     0.436167    Uiso  ? O
   O266       1.0     0.557754     0.839164     0.501962    Uiso  ? O
   O267       1.0     0.491645     0.841917     0.445251    Uiso  ? O
   O268       1.0     0.561994     0.104673     0.557526    Uiso  ? O
   O269       1.0     0.560986     0.159768     0.496586    Uiso  ? O
   O270       1.0     0.501407     0.841871     0.560173    Uiso  ? O
   Zn49       1.0     0.570777     0.103039     0.415960    Uiso  ? Zn
   Zn50       1.0     0.593638     0.897349     0.387963    Uiso  ? Zn
   Zn51       1.0     0.575807     0.821427     0.498060    Uiso  ? Zn
   Zn52       1.0     0.602830     0.794433     0.496869    Uiso  ? Zn
   Zn53       1.0     0.490944     0.821746     0.426163    Uiso  ? Zn
   Zn54       1.0     0.488363     0.794202     0.400925    Uiso  ? Zn
   Zn55       1.0     0.582322     0.104552     0.574185    Uiso  ? Zn
   Zn56       1.0     0.610015     0.104583     0.601208    Uiso  ? Zn
   Zn57       1.0     0.579522     0.177628     0.494651    Uiso  ? Zn
   Zn58       1.0     0.606796     0.205466     0.492699    Uiso  ? Zn
   Zn59       1.0     0.502976     0.823233     0.578532    Uiso  ? Zn
   Zn60       1.0     0.504842     0.796820     0.605553    Uiso  ? Zn
   C481       1.0     0.395271     0.128068     0.582121    Uiso  ? C
   C482       1.0     0.385236     0.143008     0.572487    Uiso  ? C
   C483       1.0     0.368111     0.148432     0.579525    Uiso  ? C
   H289       1.0     0.362286     0.141044     0.592086    Uiso  ? H
   C484       1.0     0.360072     0.165181     0.573765    Uiso  ? C
   H290       1.0     0.348673     0.170961     0.581519    Uiso  ? H
   C485       1.0     0.367711     0.175353     0.559601    Uiso  ? C
   H291       1.0     0.360482     0.187925     0.555788    Uiso  ? H
   C486       1.0     0.384271     0.169088     0.549794    Uiso  ? C
   C487       1.0     0.393232     0.153550     0.557328    Uiso  ? C
   H292       1.0     0.406044     0.147841     0.550560    Uiso  ? H
   C488       1.0     0.391829     0.178414     0.533846    Uiso  ? C
   C489       1.0     0.432735     0.129375     0.612856    Uiso  ? C
   C490       1.0     0.443760     0.144117     0.621943    Uiso  ? C
   C491       1.0     0.442664     0.146842     0.641407    Uiso  ? C
   H293       1.0     0.433561     0.137825     0.651031    Uiso  ? H
   C492       1.0     0.453184     0.161292     0.649548    Uiso  ? C
   H294       1.0     0.451396     0.164079     0.665190    Uiso  ? H
   C493       1.0     0.464372     0.172773     0.638206    Uiso  ? C
   H295       1.0     0.472907     0.183749     0.645598    Uiso  ? H
   C494       1.0     0.466736     0.168353     0.618735    Uiso  ? C
   C495       1.0     0.456445     0.153565     0.610848    Uiso  ? C
   H296       1.0     0.457144     0.149913     0.596046    Uiso  ? H
   C496       1.0     0.481005     0.177596     0.607175    Uiso  ? C
   C497       1.0     0.433548     0.877775     0.615175    Uiso  ? C
   C498       1.0     0.444565     0.862964     0.624768    Uiso  ? C
   C499       1.0     0.439688     0.857099     0.642313    Uiso  ? C
   H297       1.0     0.430101     0.864718     0.651220    Uiso  ? H
   C500       1.0     0.448508     0.841588     0.649882    Uiso  ? C
   H298       1.0     0.445052     0.837000     0.663630    Uiso  ? H
   C501       1.0     0.461545     0.830770     0.639011    Uiso  ? C
   H299       1.0     0.467844     0.818318     0.645381    Uiso  ? H
   C502       1.0     0.467126     0.837656     0.621509    Uiso  ? C
   C503       1.0     0.458175     0.853717     0.614167    Uiso  ? C
   H300       1.0     0.461545     0.859484     0.600122    Uiso  ? H
   C504       1.0     0.481158     0.826603     0.610258    Uiso  ? C
   C505       1.0     0.394133     0.875569     0.584686    Uiso  ? C
   C506       1.0     0.384220     0.861466     0.575910    Uiso  ? C
   C507       1.0     0.367942     0.853937     0.584919    Uiso  ? C
   H301       1.0     0.362148     0.859966     0.598494    Uiso  ? H
   C508       1.0     0.357456     0.839581     0.576005    Uiso  ? C
   H302       1.0     0.344482     0.834940     0.581650    Uiso  ? H
   C509       1.0     0.364784     0.830384     0.560467    Uiso  ? C
   H303       1.0     0.357881     0.818186     0.554436    Uiso  ? H
   C510       1.0     0.381060     0.837960     0.551929    Uiso  ? C
   C511       1.0     0.389567     0.853975     0.559101    Uiso  ? C
   H304       1.0     0.401790     0.858458     0.551408    Uiso  ? H
   C512       1.0     0.388497     0.828266     0.535333    Uiso  ? C
   C513       1.0     0.422462     0.208936     0.479442    Uiso  ? C
   C514       1.0     0.430824     0.217523     0.462607    Uiso  ? C
   C515       1.0     0.423124     0.234141     0.455402    Uiso  ? C
   H305       1.0     0.411201     0.240640     0.462754    Uiso  ? H
   C516       1.0     0.431129     0.243387     0.440498    Uiso  ? C
   H306       1.0     0.426006     0.257761     0.436064    Uiso  ? H
   C517       1.0     0.446649     0.236265     0.431468    Uiso  ? C
   H307       1.0     0.453239     0.243302     0.420039    Uiso  ? H
   C518       1.0     0.454387     0.218630     0.437417    Uiso  ? C
   C519       1.0     0.446443     0.209500     0.453217    Uiso  ? C
   H308       1.0     0.451032     0.195990     0.457362    Uiso  ? H
   C520       1.0     0.469029     0.209248     0.427039    Uiso  ? C
   C521       1.0     0.430424     0.211615     0.527180    Uiso  ? C
   C522       1.0     0.443203     0.222176     0.539410    Uiso  ? C
   C523       1.0     0.440477     0.241410     0.544627    Uiso  ? C
   H309       1.0     0.429808     0.250418     0.537744    Uiso  ? H
   C524       1.0     0.452704     0.249561     0.557354    Uiso  ? C
   H310       1.0     0.451289     0.263874     0.562137    Uiso  ? H
   C525       1.0     0.467577     0.238320     0.564944    Uiso  ? C
   H311       1.0     0.476175     0.243408     0.576113    Uiso  ? H
   C526       1.0     0.470414     0.220034     0.560184    Uiso  ? C
   C527       1.0     0.458879     0.212502     0.545866    Uiso  ? C
   H312       1.0     0.461475     0.198299     0.540757    Uiso  ? H
   C528       1.0     0.483920     0.208629     0.570208    Uiso  ? C
   C529       1.0     0.388523     0.177395     0.483287    Uiso  ? C
   C530       1.0     0.376437     0.167696     0.469520    Uiso  ? C
   C531       1.0     0.356871     0.170229     0.468656    Uiso  ? C
   H313       1.0     0.350741     0.179834     0.479109    Uiso  ? H
   C532       1.0     0.345611     0.159910     0.456382    Uiso  ? C
   H314       1.0     0.331182     0.159906     0.458963    Uiso  ? H
   C533       1.0     0.353888     0.147488     0.444124    Uiso  ? C
   H315       1.0     0.345215     0.139267     0.435914    Uiso  ? H
   C534       1.0     0.373315     0.145144     0.444383    Uiso  ? C
   C535       1.0     0.384614     0.154657     0.457530    Uiso  ? C
   H316       1.0     0.400093     0.152474     0.457252    Uiso  ? H
   C536       1.0     0.381693     0.128892     0.433578    Uiso  ? C
   C537       1.0     0.531353     0.210591     0.572587    Uiso  ? C
   C538       1.0     0.546297     0.219921     0.561001    Uiso  ? C
   C539       1.0     0.550429     0.238583     0.564662    Uiso  ? C
   H317       1.0     0.542140     0.247311     0.575463    Uiso  ? H
   C540       1.0     0.563100     0.247792     0.553159    Uiso  ? C
   H318       1.0     0.567003     0.262113     0.555789    Uiso  ? H
   C541       1.0     0.571294     0.239232     0.537722    Uiso  ? C
   H319       1.0     0.581394     0.247493     0.528888    Uiso  ? H
   C542       1.0     0.567794     0.219938     0.533997    Uiso  ? C
   C543       1.0     0.555271     0.210197     0.546202    Uiso  ? C
   H320       1.0     0.550767     0.195835     0.540890    Uiso  ? H
   C544       1.0     0.576626     0.210675     0.517625    Uiso  ? C
   C545       1.0     0.530495     0.175621     0.606477    Uiso  ? C
   C546       1.0     0.545232     0.166709     0.617099    Uiso  ? C
   C547       1.0     0.550236     0.172949     0.635356    Uiso  ? C
   H321       1.0     0.542575     0.184383     0.641452    Uiso  ? H
   C548       1.0     0.565078     0.163680     0.644606    Uiso  ? C
   H322       1.0     0.569965     0.167880     0.658214    Uiso  ? H
   C549       1.0     0.574196     0.148446     0.635412    Uiso  ? C
   H323       1.0     0.585828     0.141629     0.641379    Uiso  ? H
   C550       1.0     0.569324     0.143029     0.617650    Uiso  ? C
   C551       1.0     0.552845     0.150553     0.609247    Uiso  ? C
   H324       1.0     0.547894     0.146344     0.595549    Uiso  ? H
   C552       1.0     0.580359     0.128817     0.606646    Uiso  ? C
   C553       1.0     0.415078     0.126635     0.399704    Uiso  ? C
   C554       1.0     0.425606     0.139343     0.387431    Uiso  ? C
   C555       1.0     0.419706     0.144493     0.369732    Uiso  ? C
   H325       1.0     0.405914     0.140558     0.365678    Uiso  ? H
   C556       1.0     0.429258     0.157797     0.359067    Uiso  ? C
   H326       1.0     0.424875     0.162394     0.345192    Uiso  ? H
   C557       1.0     0.444762     0.166209     0.366298    Uiso  ? C
   H327       1.0     0.452535     0.177124     0.358178    Uiso  ? H
   C558       1.0     0.450728     0.162283     0.384967    Uiso  ? C
   C559       1.0     0.441556     0.148542     0.395182    Uiso  ? C
   H328       1.0     0.446859     0.145601     0.409583    Uiso  ? H
   C560       1.0     0.465256     0.173430     0.393621    Uiso  ? C
   C561       1.0     0.378311     0.875543     0.435843    Uiso  ? C
   C562       1.0     0.369842     0.859889     0.446839    Uiso  ? C
   C563       1.0     0.352453     0.852278     0.441265    Uiso  ? C
   H329       1.0     0.343249     0.858626     0.430795    Uiso  ? H
   C564       1.0     0.345941     0.835846     0.449772    Uiso  ? C
   H330       1.0     0.334286     0.830050     0.444145    Uiso  ? H
   C565       1.0     0.356617     0.825836     0.463826    Uiso  ? C
   H331       1.0     0.351563     0.813521     0.469715    Uiso  ? H
   C566       1.0     0.374465     0.832960     0.469022    Uiso  ? C
   C567       1.0     0.380367     0.850078     0.460490    Uiso  ? C
   H332       1.0     0.394354     0.854518     0.464090    Uiso  ? H
   C568       1.0     0.385761     0.824250     0.484002    Uiso  ? C
   C569       1.0     0.422507     0.793605     0.532543    Uiso  ? C
   C570       1.0     0.435481     0.783070     0.545407    Uiso  ? C
   C571       1.0     0.432658     0.764045     0.550506    Uiso  ? C
   H333       1.0     0.422034     0.756523     0.544079    Uiso  ? H
   C572       1.0     0.443643     0.755319     0.563208    Uiso  ? C
   H334       1.0     0.442867     0.740886     0.566665    Uiso  ? H
   C573       1.0     0.457657     0.764559     0.572567    Uiso  ? C
   H335       1.0     0.466342     0.757497     0.581208    Uiso  ? H
   C574       1.0     0.461817     0.783088     0.567337    Uiso  ? C
   C575       1.0     0.450322     0.792703     0.553836    Uiso  ? C
   H336       1.0     0.452356     0.807677     0.550581    Uiso  ? H
   C576       1.0     0.478106     0.793017     0.576849    Uiso  ? C
   O271       1.0     0.411335     0.122828     0.574877    Uiso  ? O
   O272       1.0     0.390393     0.122102     0.598430    Uiso  ? O
   O273       1.0     0.438929     0.121623     0.597132    Uiso  ? O
   O274       1.0     0.417780     0.123414     0.621396    Uiso  ? O
   O275       1.0     0.438365     0.884357     0.599419    Uiso  ? O
   O276       1.0     0.417311     0.882307     0.621954    Uiso  ? O
   O277       1.0     0.410057     0.880211     0.576807    Uiso  ? O
   O278       1.0     0.388581     0.883172     0.600139    Uiso  ? O
   O279       1.0     0.429469     0.193298     0.485928    Uiso  ? O
   O280       1.0     0.408467     0.216735     0.487479    Uiso  ? O
   O281       1.0     0.435922     0.195041     0.520769    Uiso  ? O
   O282       1.0     0.413806     0.217798     0.523906    Uiso  ? O
   O283       1.0     0.405828     0.170623     0.524960    Uiso  ? O
   O284       1.0     0.385849     0.195750     0.529929    Uiso  ? O
   O285       1.0     0.404524     0.170448     0.487376    Uiso  ? O
   O286       1.0     0.381584     0.190911     0.493130    Uiso  ? O
   O287       1.0     0.524945     0.194263     0.566475    Uiso  ? O
   O288       1.0     0.524670     0.218422     0.588065    Uiso  ? O
   O289       1.0     0.522460     0.167313     0.591988    Uiso  ? O
   O290       1.0     0.524779     0.191990     0.612458    Uiso  ? O
   O291       1.0     0.487681     0.170048     0.591610    Uiso  ? O
   O292       1.0     0.487275     0.194003     0.612752    Uiso  ? O
   O293       1.0     0.488073     0.191560     0.564678    Uiso  ? O
   O294       1.0     0.491026     0.214822     0.585340    Uiso  ? O
   O295       1.0     0.422526     0.119338     0.415200    Uiso  ? O
   O296       1.0     0.399207     0.120593     0.394004    Uiso  ? O
   O297       1.0     0.397285     0.121530     0.439791    Uiso  ? O
   O298       1.0     0.374154     0.121525     0.418783    Uiso  ? O
   O299       1.0     0.394914     0.882167     0.441851    Uiso  ? O
   O300       1.0     0.372762     0.879928     0.419327    Uiso  ? O
   O301       1.0     0.420329     0.878288     0.417426    Uiso  ? O
   O302       1.0     0.398594     0.878305     0.394777    Uiso  ? O
   O303       1.0     0.400515     0.832893     0.491607    Uiso  ? O
   O304       1.0     0.380604     0.808545     0.491123    Uiso  ? O
   O305       1.0     0.403828     0.835379     0.527407    Uiso  ? O
   O306       1.0     0.381871     0.812471     0.529441    Uiso  ? O
   O307       1.0     0.429263     0.809467     0.525218    Uiso  ? O
   O308       1.0     0.407047     0.786214     0.527421    Uiso  ? O
   O309       1.0     0.426469     0.809790     0.489355    Uiso  ? O
   O310       1.0     0.404879     0.786807     0.492801    Uiso  ? O
   O311       1.0     0.509334     0.167951     0.404221    Uiso  ? O
   O312       1.0     0.507992     0.191663     0.383404    Uiso  ? O
   O313       1.0     0.512179     0.192496     0.432079    Uiso  ? O
   O314       1.0     0.510716     0.215061     0.410066    Uiso  ? O
   O315       1.0     0.475911     0.193284     0.433053    Uiso  ? O
   O316       1.0     0.472865     0.215678     0.410586    Uiso  ? O
   O317       1.0     0.473049     0.167289     0.409532    Uiso  ? O
   O318       1.0     0.472212     0.188530     0.385634    Uiso  ? O
   O319       1.0     0.441866     0.103588     0.562050    Uiso  ? O
   O320       1.0     0.435912     0.160434     0.505143    Uiso  ? O
   O321       1.0     0.506033     0.158920     0.558726    Uiso  ? O
   O322       1.0     0.429370     0.102877     0.448150    Uiso  ? O
   O323       1.0     0.434521     0.843280     0.505498    Uiso  ? O
   O324       1.0     0.494072     0.160357     0.439933    Uiso  ? O
   Zn61       1.0     0.425730     0.103997     0.583243    Uiso  ? Zn
   Zn62       1.0     0.402378     0.104775     0.613006    Uiso  ? Zn
   Zn63       1.0     0.420212     0.179436     0.505754    Uiso  ? Zn
   Zn64       1.0     0.395288     0.207760     0.508944    Uiso  ? Zn
   Zn65       1.0     0.505983     0.178343     0.576828    Uiso  ? Zn
   Zn66       1.0     0.507169     0.206758     0.602794    Uiso  ? Zn
   Zn67       1.0     0.411201     0.102716     0.429892    Uiso  ? Zn
   Zn68       1.0     0.383315     0.897533     0.404006    Uiso  ? Zn
   Zn69       1.0     0.418034     0.823832     0.508513    Uiso  ? Zn
   Zn70       1.0     0.391010     0.796562     0.511259    Uiso  ? Zn
   Zn71       1.0     0.493575     0.178685     0.421796    Uiso  ? Zn
   Zn72       1.0     0.491292     0.205250     0.395302    Uiso  ? Zn
   H337       1.0     0.438902     0.156323     0.517848    Uiso  ? H
   H338       1.0     0.447916     0.166751     0.501379    Uiso  ? H
   H339       1.0     0.547411     0.832974     0.509025    Uiso  ? H
   H340       1.0     0.553460     0.843331     0.489119    Uiso  ? H
   H341       1.0     0.499585     0.853068     0.568018    Uiso  ? H
   H342       1.0     0.487943     0.840764     0.554143    Uiso  ? H
   H343       1.0     0.565628     0.108283     0.544256    Uiso  ? H
   H344       1.0     0.553552     0.114189     0.562195    Uiso  ? H
   H345       1.0     0.482408     0.151532     0.440029    Uiso  ? H
   H346       1.0     0.504436     0.152815     0.434359    Uiso  ? H
   H347       1.0     0.540169     0.895940     0.431705    Uiso  ? H
   H348       1.0     0.558209     0.890526     0.445294    Uiso  ? H
   H349       1.0     0.565873     0.147384     0.491753    Uiso  ? H
   H350       1.0     0.549844     0.162531     0.488568    Uiso  ? H
   H351       1.0     0.429150     0.889150     0.458102    Uiso  ? H
   H352       1.0     0.429612     0.114624     0.456067    Uiso  ? H
   H353       1.0     0.500889     0.836552     0.453981    Uiso  ? H
   H354       1.0     0.479330     0.840549     0.451921    Uiso  ? H
   H355       1.0     0.430768     0.853835     0.512788    Uiso  ? H
   H356       1.0     0.446958     0.839670     0.510047    Uiso  ? H
   H357       1.0     0.506248     0.146545     0.564268    Uiso  ? H
   H358       1.0     0.518745     0.160578     0.552284    Uiso  ? H
   H359       1.0     0.440642     0.886794     0.556245    Uiso  ? H
   H360       1.0     0.454632     0.105231     0.566496    Uiso  ? H
   C577       1.0     0.416276     0.396913     0.119757    Uiso  ? C
   C578       1.0     0.424776     0.387173     0.135653    Uiso  ? C
   C579       1.0     0.416401     0.370157     0.142754    Uiso  ? C
   H361       1.0     0.402403     0.366053     0.136834    Uiso  ? H
   C580       1.0     0.421912     0.362541     0.158931    Uiso  ? C
   H362       1.0     0.416321     0.349074     0.162361    Uiso  ? H
   C581       1.0     0.438677     0.368938     0.167566    Uiso  ? C
   H363       1.0     0.441747     0.362634     0.181348    Uiso  ? H
   C582       1.0     0.448457     0.384913     0.160794    Uiso  ? C
   C583       1.0     0.441962     0.392574     0.143218    Uiso  ? C
   H364       1.0     0.449320     0.404704     0.138127    Uiso  ? H
   C584       1.0     0.463877     0.393661     0.171565    Uiso  ? C
   C585       1.0     0.389838     0.435470     0.122788    Uiso  ? C
   C586       1.0     0.380258     0.444994     0.138187    Uiso  ? C
   C587       1.0     0.361561     0.441351     0.142480    Uiso  ? C
   H365       1.0     0.354095     0.431545     0.133361    Uiso  ? H
   C588       1.0     0.351830     0.450742     0.156981    Uiso  ? C
   H366       1.0     0.336666     0.447962     0.159381    Uiso  ? H
   C589       1.0     0.361756     0.464444     0.167449    Uiso  ? C
   H367       1.0     0.355280     0.472251     0.178531    Uiso  ? H
   C590       1.0     0.381582     0.467844     0.163138    Uiso  ? C
   C591       1.0     0.390110     0.458823     0.148602    Uiso  ? C
   H368       1.0     0.403495     0.463039     0.143038    Uiso  ? H
   C592       1.0     0.392519     0.482233     0.174026    Uiso  ? C
   C593       1.0     0.385815     0.437633     0.874167    Uiso  ? C
   C594       1.0     0.377452     0.449642     0.858870    Uiso  ? C
   C595       1.0     0.358564     0.447749     0.852749    Uiso  ? C
   H369       1.0     0.348553     0.437100     0.858566    Uiso  ? H
   C596       1.0     0.351432     0.460262     0.838880    Uiso  ? C
   H370       1.0     0.337910     0.459258     0.833866    Uiso  ? H
   C597       1.0     0.362764     0.473096     0.830549    Uiso  ? C
   H371       1.0     0.356623     0.481659     0.820194    Uiso  ? H
   C598       1.0     0.381248     0.475076     0.835877    Uiso  ? C
   C599       1.0     0.388157     0.463049     0.850386    Uiso  ? C
   H372       1.0     0.403131     0.464472     0.852724    Uiso  ? H
   C600       1.0     0.393805     0.487782     0.825225    Uiso  ? C
   C601       1.0     0.418132     0.399559     0.869798    Uiso  ? C
   C602       1.0     0.426619     0.389768     0.853601    Uiso  ? C
   C603       1.0     0.420098     0.372995     0.846658    Uiso  ? C
   H373       1.0     0.405919     0.367670     0.851474    Uiso  ? H
   C604       1.0     0.430494     0.362473     0.834412    Uiso  ? C
   H374       1.0     0.425488     0.349274     0.828352    Uiso  ? H
   C605       1.0     0.446850     0.369392     0.827121    Uiso  ? C
   H375       1.0     0.453401     0.363391     0.815076    Uiso  ? H
   C606       1.0     0.453680     0.386879     0.833096    Uiso  ? C
   C607       1.0     0.443957     0.396709     0.847001    Uiso  ? C
   H376       1.0     0.449520     0.409921     0.851924    Uiso  ? H
   C608       1.0     0.470872     0.394372     0.824354    Uiso  ? C
   C609       1.0     0.516995     0.419905     0.208544    Uiso  ? C
   C610       1.0     0.532184     0.429227     0.219508    Uiso  ? C
   C611       1.0     0.534483     0.426454     0.238770    Uiso  ? C
   H377       1.0     0.524551     0.417943     0.246188    Uiso  ? H
   C612       1.0     0.546791     0.436878     0.248920    Uiso  ? C
   H378       1.0     0.546944     0.434586     0.263914    Uiso  ? H
   C613       1.0     0.558853     0.449756     0.239619    Uiso  ? C
   H379       1.0     0.567522     0.459152     0.247427    Uiso  ? H
   C614       1.0     0.555818     0.454362     0.220836    Uiso  ? C
   C615       1.0     0.542894     0.443673     0.210929    Uiso  ? C
   H380       1.0     0.540845     0.447472     0.196284    Uiso  ? H
   C616       1.0     0.567981     0.467570     0.210321    Uiso  ? C
   C617       1.0     0.469535     0.424164     0.207002    Uiso  ? C
   C618       1.0     0.454429     0.434112     0.216620    Uiso  ? C
   C619       1.0     0.446758     0.426638     0.232769    Uiso  ? C
   H381       1.0     0.452476     0.413638     0.239414    Uiso  ? H
   C620       1.0     0.431808     0.435640     0.241078    Uiso  ? C
   H382       1.0     0.424408     0.428488     0.253205    Uiso  ? H
   C621       1.0     0.422819     0.451480     0.233122    Uiso  ? C
   H383       1.0     0.409595     0.456869     0.239337    Uiso  ? H
   C622       1.0     0.432150     0.460452     0.217691    Uiso  ? C
   C623       1.0     0.447767     0.451396     0.210169    Uiso  ? C
   H384       1.0     0.454297     0.456552     0.197688    Uiso  ? H
   C624       1.0     0.425852     0.479117     0.210228    Uiso  ? C
   C625       1.0     0.514018     0.389132     0.167398    Uiso  ? C
   C626       1.0     0.528478     0.378471     0.156971    Uiso  ? C
   C627       1.0     0.531246     0.358914     0.161502    Uiso  ? C
   H385       1.0     0.523241     0.352538     0.172027    Uiso  ? H
   C628       1.0     0.545540     0.349077     0.152959    Uiso  ? C
   H386       1.0     0.548684     0.334519     0.158714    Uiso  ? H
   C629       1.0     0.557150     0.357898     0.139888    Uiso  ? C
   H387       1.0     0.570569     0.350881     0.136011    Uiso  ? H
   C630       1.0     0.554925     0.376798     0.136156    Uiso  ? C
   C631       1.0     0.540285     0.386727     0.144126    Uiso  ? C
   H388       1.0     0.538329     0.401493     0.139485    Uiso  ? H
   C632       1.0     0.567609     0.387627     0.123434    Uiso  ? C
   C633       1.0     0.425455     0.531272     0.210079    Uiso  ? C
   C634       1.0     0.436341     0.546790     0.219631    Uiso  ? C
   C635       1.0     0.432501     0.552045     0.238124    Uiso  ? C
   H389       1.0     0.420012     0.546773     0.245072    Uiso  ? H
   C636       1.0     0.442844     0.565856     0.247238    Uiso  ? C
   H390       1.0     0.440957     0.570680     0.261302    Uiso  ? H
   C637       1.0     0.458742     0.573271     0.237703    Uiso  ? C
   H391       1.0     0.465855     0.584059     0.245473    Uiso  ? H
   C638       1.0     0.463175     0.568223     0.219043    Uiso  ? C
   C639       1.0     0.452200     0.554658     0.210115    Uiso  ? C
   H392       1.0     0.455518     0.549475     0.197150    Uiso  ? H
   C640       1.0     0.480272     0.576800     0.210402    Uiso  ? C
   C641       1.0     0.393523     0.531445     0.173745    Uiso  ? C
   C642       1.0     0.385538     0.546588     0.163032    Uiso  ? C
   C643       1.0     0.367235     0.552595     0.165858    Uiso  ? C
   H393       1.0     0.356175     0.544823     0.173961    Uiso  ? H
   C644       1.0     0.359526     0.568323     0.155329    Uiso  ? C
   H394       1.0     0.345181     0.571731     0.157925    Uiso  ? H
   C645       1.0     0.370563     0.577011     0.142260    Uiso  ? C
   H395       1.0     0.365413     0.588722     0.134463    Uiso  ? H
   C646       1.0     0.388609     0.569937     0.138922    Uiso  ? C
   C647       1.0     0.396521     0.555260     0.149832    Uiso  ? C
   H396       1.0     0.410331     0.550520     0.146167    Uiso  ? H
   C648       1.0     0.400426     0.579703     0.124982    Uiso  ? C
   C649       1.0     0.606051     0.419543     0.124973    Uiso  ? C
   C650       1.0     0.616146     0.426952     0.141228    Uiso  ? C
   C651       1.0     0.633452     0.420266     0.147178    Uiso  ? C
   H397       1.0     0.641959     0.411149     0.138000    Uiso  ? H
   C652       1.0     0.642544     0.429410     0.162281    Uiso  ? C
   H398       1.0     0.657675     0.425712     0.165538    Uiso  ? H
   C653       1.0     0.632927     0.444292     0.171497    Uiso  ? C
   H399       1.0     0.638682     0.451974     0.183316    Uiso  ? H
   C654       1.0     0.615070     0.450095     0.166069    Uiso  ? C
   C655       1.0     0.606923     0.441230     0.150683    Uiso  ? C
   H400       1.0     0.592916     0.445676     0.146515    Uiso  ? H
   C656       1.0     0.605245     0.464670     0.176198    Uiso  ? C
   C657       1.0     0.568216     0.387184     0.875172    Uiso  ? C
   C658       1.0     0.557882     0.379929     0.858913    Uiso  ? C
   C659       1.0     0.563918     0.362657     0.851640    Uiso  ? C
   H401       1.0     0.573345     0.354331     0.859416    Uiso  ? H
   C660       1.0     0.557999     0.356374     0.834055    Uiso  ? C
   H402       1.0     0.564603     0.343657     0.827207    Uiso  ? H
   C661       1.0     0.543521     0.365327     0.824477    Uiso  ? C
   H403       1.0     0.536944     0.359618     0.811686    Uiso  ? H
   C662       1.0     0.535920     0.381864     0.832432    Uiso  ? C
   C663       1.0     0.544374     0.389921     0.848723    Uiso  ? C
   H404       1.0     0.539683     0.403428     0.852557    Uiso  ? H
   C664       1.0     0.520493     0.392273     0.823084    Uiso  ? C
   C665       1.0     0.472642     0.429070     0.790735    Uiso  ? C
   C666       1.0     0.458480     0.440304     0.780616    Uiso  ? C
   C667       1.0     0.453847     0.435437     0.762314    Uiso  ? C
   H405       1.0     0.458595     0.423018     0.755697    Uiso  ? H
   C668       1.0     0.439882     0.444551     0.753382    Uiso  ? C
   H406       1.0     0.435876     0.439216     0.738975    Uiso  ? H
   C669       1.0     0.431079     0.459997     0.762657    Uiso  ? C
   H407       1.0     0.420190     0.467329     0.754887    Uiso  ? H
   C670       1.0     0.437386     0.466316     0.780525    Uiso  ? C
   C671       1.0     0.451600     0.455858     0.788692    Uiso  ? C
   H408       1.0     0.456533     0.460004     0.801705    Uiso  ? H
   C672       1.0     0.429493     0.483071     0.790205    Uiso  ? C
   O325       1.0     0.425084     0.411482     0.112834    Uiso  ? O
   O326       1.0     0.400316     0.392627     0.112950    Uiso  ? O
   O327       1.0     0.405516     0.441533     0.116266    Uiso  ? O
   O328       1.0     0.382457     0.420883     0.114604    Uiso  ? O
   O329       1.0     0.401525     0.443138     0.881253    Uiso  ? O
   O330       1.0     0.378718     0.421654     0.877967    Uiso  ? O
   O331       1.0     0.425880     0.414720     0.875749    Uiso  ? O
   O332       1.0     0.402089     0.393663     0.876433    Uiso  ? O
   O333       1.0     0.514653     0.425061     0.191456    Uiso  ? O
   O334       1.0     0.507688     0.405611     0.215330    Uiso  ? O
   O335       1.0     0.475953     0.430750     0.191261    Uiso  ? O
   O336       1.0     0.474351     0.407817     0.212661    Uiso  ? O
   O337       1.0     0.474465     0.406175     0.164053    Uiso  ? O
   O338       1.0     0.469510     0.385768     0.186848    Uiso  ? O
   O339       1.0     0.509176     0.405691     0.161755    Uiso  ? O
   O340       1.0     0.507149     0.382911     0.182849    Uiso  ? O
   O341       1.0     0.431933     0.524435     0.194562    Uiso  ? O
   O342       1.0     0.411628     0.523244     0.218042    Uiso  ? O
   O343       1.0     0.409260     0.523693     0.168300    Uiso  ? O
   O344       1.0     0.386650     0.526687     0.190654    Uiso  ? O
   O345       1.0     0.409027     0.487465     0.167810    Uiso  ? O
   O346       1.0     0.386224     0.489904     0.189366    Uiso  ? O
   O347       1.0     0.434233     0.486928     0.195862    Uiso  ? O
   O348       1.0     0.410585     0.485996     0.216836    Uiso  ? O
   O349       1.0     0.591780     0.428544     0.117688    Uiso  ? O
   O350       1.0     0.610820     0.403395     0.117848    Uiso  ? O
   O351       1.0     0.563887     0.404746     0.118257    Uiso  ? O
   O352       1.0     0.581957     0.380230     0.115377    Uiso  ? O
   O353       1.0     0.564626     0.403510     0.882693    Uiso  ? O
   O354       1.0     0.583725     0.379263     0.880824    Uiso  ? O
   O355       1.0     0.591212     0.427846     0.881986    Uiso  ? O
   O356       1.0     0.610717     0.402407     0.880954    Uiso  ? O
   O357       1.0     0.514137     0.407739     0.831336    Uiso  ? O
   O358       1.0     0.515306     0.387537     0.806438    Uiso  ? O
   O359       1.0     0.476687     0.411006     0.829925    Uiso  ? O
   O360       1.0     0.479158     0.386097     0.810408    Uiso  ? O
   O361       1.0     0.478904     0.434241     0.807425    Uiso  ? O
   O362       1.0     0.479177     0.414039     0.783447    Uiso  ? O
   O363       1.0     0.514387     0.433023     0.803496    Uiso  ? O
   O364       1.0     0.514868     0.410249     0.782128    Uiso  ? O
   O365       1.0     0.590434     0.507528     0.170414    Uiso  ? O
   O366       1.0     0.613975     0.506561     0.191554    Uiso  ? O
   O367       1.0     0.565390     0.507659     0.197661    Uiso  ? O
   O368       1.0     0.589601     0.508706     0.217868    Uiso  ? O
   O369       1.0     0.563065     0.472276     0.193261    Uiso  ? O
   O370       1.0     0.584347     0.471816     0.216351    Uiso  ? O
   O371       1.0     0.589290     0.471449     0.169879    Uiso  ? O
   O372       1.0     0.612361     0.471827     0.191832    Uiso  ? O
   O373       1.0     0.439332     0.442339     0.896488    Uiso  ? O
   O374       1.0     0.495970     0.439614     0.161139    Uiso  ? O
   O375       1.0     0.443733     0.506586     0.164014    Uiso  ? O
   O376       1.0     0.559650     0.438345     0.100300    Uiso  ? O
   O377       1.0     0.498000     0.442500     0.837940    Uiso  ? O
   O378       1.0     0.555961     0.492943     0.162293    Uiso  ? O
   Zn73       1.0     0.416682     0.428936     0.895627    Uiso  ? Zn
   Zn74       1.0     0.388152     0.403843     0.894819    Uiso  ? Zn
   Zn75       1.0     0.494184     0.419104     0.175801    Uiso  ? Zn
   Zn76       1.0     0.489502     0.392239     0.201101    Uiso  ? Zn
   Zn77       1.0     0.423712     0.505161     0.179689    Uiso  ? Zn
   Zn78       1.0     0.396128     0.506724     0.205459    Uiso  ? Zn
   Zn79       1.0     0.576411     0.418730     0.100102    Uiso  ? Zn
   Zn80       1.0     0.599507     0.387959     0.899260    Uiso  ? Zn
   Zn81       1.0     0.497065     0.424198     0.820460    Uiso  ? Zn
   Zn82       1.0     0.495991     0.397519     0.793493    Uiso  ? Zn
   Zn83       1.0     0.574899     0.490338     0.180253    Uiso  ? Zn
   Zn84       1.0     0.601471     0.489097     0.206044    Uiso  ? Zn
   C673       1.0     0.582078     0.603135     0.879023    Uiso  ? C
   C674       1.0     0.574052     0.613465     0.862820    Uiso  ? C
   C675       1.0     0.582792     0.629827     0.856091    Uiso  ? C
   H409       1.0     0.596778     0.635966     0.862326    Uiso  ? H
   C676       1.0     0.574629     0.640451     0.842364    Uiso  ? C
   H410       1.0     0.579916     0.655602     0.838594    Uiso  ? H
   C677       1.0     0.558961     0.632863     0.833156    Uiso  ? C
   H411       1.0     0.553234     0.641901     0.822585    Uiso  ? H
   C678       1.0     0.551517     0.615290     0.837744    Uiso  ? C
   C679       1.0     0.557806     0.606600     0.853866    Uiso  ? C
   H412       1.0     0.550610     0.595042     0.858967    Uiso  ? H
   C680       1.0     0.535530     0.607321     0.828051    Uiso  ? C
   C681       1.0     0.614467     0.565546     0.879545    Uiso  ? C
   C682       1.0     0.622732     0.556080     0.862458    Uiso  ? C
   C683       1.0     0.639629     0.562831     0.853541    Uiso  ? C
   H413       1.0     0.647381     0.574154     0.859657    Uiso  ? H
   C684       1.0     0.646306     0.556236     0.836981    Uiso  ? C
   H414       1.0     0.658179     0.562564     0.829299    Uiso  ? H
   C685       1.0     0.637530     0.540512     0.829666    Uiso  ? C
   H415       1.0     0.643477     0.534183     0.817014    Uiso  ? H
   C686       1.0     0.621438     0.532434     0.837882    Uiso  ? C
   C687       1.0     0.613931     0.540922     0.854088    Uiso  ? C
   H416       1.0     0.601228     0.535060     0.860114    Uiso  ? H
   C688       1.0     0.611684     0.516494     0.828573    Uiso  ? C
   C689       1.0     0.610672     0.563579     0.126108    Uiso  ? C
   C690       1.0     0.619038     0.551864     0.141636    Uiso  ? C
   C691       1.0     0.638309     0.553244     0.145394    Uiso  ? C
   H417       1.0     0.645818     0.565211     0.139666    Uiso  ? H
   C692       1.0     0.647562     0.542623     0.158568    Uiso  ? C
   H418       1.0     0.662226     0.544158     0.161498    Uiso  ? H
   C693       1.0     0.637541     0.528955     0.168408    Uiso  ? C
   H419       1.0     0.645517     0.520432     0.178342    Uiso  ? H
   C694       1.0     0.617909     0.527573     0.165422    Uiso  ? C
   C695       1.0     0.608897     0.538322     0.151609    Uiso  ? C
   H420       1.0     0.594259     0.535596     0.148464    Uiso  ? H
   C696       1.0     0.607056     0.513300     0.175856    Uiso  ? C
   C697       1.0     0.585109     0.603632     0.129486    Uiso  ? C
   C698       1.0     0.575634     0.613306     0.145221    Uiso  ? C
   C699       1.0     0.580518     0.632209     0.149283    Uiso  ? C
   H421       1.0     0.590141     0.640020     0.141222    Uiso  ? H
   C700       1.0     0.569595     0.642334     0.162375    Uiso  ? C
   H422       1.0     0.574872     0.656239     0.165944    Uiso  ? H
   C701       1.0     0.555148     0.633119     0.171645    Uiso  ? C
   H423       1.0     0.547981     0.640814     0.181752    Uiso  ? H
   C702       1.0     0.551200     0.613924     0.168079    Uiso  ? C
   C703       1.0     0.561006     0.604457     0.154195    Uiso  ? C
   H424       1.0     0.557826     0.589304     0.152309    Uiso  ? H
   C704       1.0     0.534442     0.605183     0.177183    Uiso  ? C
   C705       1.0     0.486264     0.575943     0.790054    Uiso  ? C
   C706       1.0     0.470855     0.566632     0.779127    Uiso  ? C
   C707       1.0     0.467942     0.570056     0.759916    Uiso  ? C
   H425       1.0     0.476785     0.579816     0.753042    Uiso  ? H
   C708       1.0     0.453050     0.561416     0.750260    Uiso  ? C
   H426       1.0     0.449894     0.565522     0.735743    Uiso  ? H
   C709       1.0     0.441250     0.549388     0.760121    Uiso  ? C
   H427       1.0     0.428708     0.544042     0.752947    Uiso  ? H
   C710       1.0     0.444672     0.544671     0.779141    Uiso  ? C
   C711       1.0     0.460535     0.551620     0.786709    Uiso  ? C
   H428       1.0     0.463106     0.547284     0.800502    Uiso  ? H
   C712       1.0     0.433323     0.530824     0.788717    Uiso  ? C
   C713       1.0     0.535451     0.574170     0.791869    Uiso  ? C
   C714       1.0     0.549845     0.563591     0.781823    Uiso  ? C
   C715       1.0     0.555641     0.567514     0.763231    Uiso  ? C
   H429       1.0     0.547957     0.577770     0.755854    Uiso  ? H
   C716       1.0     0.569504     0.557098     0.754001    Uiso  ? C
   H430       1.0     0.574128     0.560264     0.739758    Uiso  ? H
   C717       1.0     0.577314     0.541681     0.763381    Uiso  ? C
   H431       1.0     0.586867     0.533454     0.756344    Uiso  ? H
   C718       1.0     0.572075     0.537457     0.781722    Uiso  ? C
   C719       1.0     0.559487     0.549293     0.791197    Uiso  ? C
   H432       1.0     0.556952     0.547406     0.805775    Uiso  ? H
   C720       1.0     0.581755     0.521633     0.792061    Uiso  ? C
   C721       1.0     0.487294     0.609994     0.827467    Uiso  ? C
   C722       1.0     0.470536     0.619901     0.835310    Uiso  ? C
   C723       1.0     0.462559     0.635462     0.825505    Uiso  ? C
   H433       1.0     0.468768     0.640076     0.811307    Uiso  ? H
   C724       1.0     0.446402     0.644541     0.833486    Uiso  ? C
   H434       1.0     0.439882     0.656354     0.826804    Uiso  ? H
   C725       1.0     0.438218     0.637867     0.849731    Uiso  ? C
   H435       1.0     0.425793     0.645917     0.855015    Uiso  ? H
   C726       1.0     0.445271     0.621520     0.859007    Uiso  ? C
   C727       1.0     0.462314     0.613838     0.852266    Uiso  ? C
   H436       1.0     0.468795     0.602412     0.859935    Uiso  ? H
   C728       1.0     0.436068     0.613574     0.875772    Uiso  ? C
   C729       1.0     0.573960     0.471694     0.791910    Uiso  ? C
   C730       1.0     0.561700     0.459087     0.779961    Uiso  ? C
   C731       1.0     0.568573     0.452800     0.762182    Uiso  ? C
   H437       1.0     0.580673     0.458814     0.756244    Uiso  ? H
   C732       1.0     0.556937     0.440329     0.752017    Uiso  ? C
   H438       1.0     0.561478     0.436474     0.737532    Uiso  ? H
   C733       1.0     0.540408     0.433327     0.759787    Uiso  ? C
   H439       1.0     0.531540     0.423145     0.752597    Uiso  ? H
   C734       1.0     0.535013     0.437540     0.778160    Uiso  ? C
   C735       1.0     0.545730     0.451086     0.787880    Uiso  ? C
   H440       1.0     0.541276     0.454635     0.802298    Uiso  ? H
   C736       1.0     0.520167     0.427371     0.787800    Uiso  ? C
   C737       1.0     0.609581     0.468392     0.825044    Uiso  ? C
   C738       1.0     0.618355     0.452958     0.835197    Uiso  ? C
   C739       1.0     0.636613     0.447741     0.831976    Uiso  ? C
   H441       1.0     0.645597     0.456201     0.822849    Uiso  ? H
   C740       1.0     0.644223     0.431745     0.840306    Uiso  ? C
   H442       1.0     0.659124     0.427998     0.837653    Uiso  ? H
   C741       1.0     0.633991     0.422253     0.853906    Uiso  ? C
   H443       1.0     0.640854     0.409486     0.859833    Uiso  ? H
   C742       1.0     0.616250     0.428086     0.859223    Uiso  ? C
   C743       1.0     0.607567     0.442739     0.848897    Uiso  ? C
   H444       1.0     0.594059     0.446404     0.852196    Uiso  ? H
   C744       1.0     0.605593     0.418999     0.874863    Uiso  ? C
   C745       1.0     0.399102     0.580358     0.877710    Uiso  ? C
   C746       1.0     0.389586     0.572039     0.860757    Uiso  ? C
   C747       1.0     0.372463     0.578842     0.853551    Uiso  ? C
   H445       1.0     0.364565     0.589342     0.860743    Uiso  ? H
   C748       1.0     0.366395     0.574732     0.836234    Uiso  ? C
   H446       1.0     0.353778     0.581916     0.832018    Uiso  ? H
   C749       1.0     0.375545     0.561917     0.824588    Uiso  ? C
   H447       1.0     0.370681     0.559230     0.811024    Uiso  ? H
   C750       1.0     0.391713     0.552786     0.831813    Uiso  ? C
   C751       1.0     0.398423     0.558304     0.849224    Uiso  ? C
   H448       1.0     0.411279     0.552537     0.854526    Uiso  ? H
   C752       1.0     0.399850     0.536119     0.822537    Uiso  ? C
   C753       1.0     0.437500     0.614027     0.125826    Uiso  ? C
   C754       1.0     0.446457     0.623098     0.142223    Uiso  ? C
   C755       1.0     0.441855     0.642009     0.148200    Uiso  ? C
   H449       1.0     0.432231     0.649558     0.139549    Uiso  ? H
   C756       1.0     0.451237     0.649867     0.163627    Uiso  ? C
   H450       1.0     0.447485     0.663480     0.168167    Uiso  ? H
   C757       1.0     0.466214     0.640364     0.172553    Uiso  ? C
   H451       1.0     0.473260     0.647117     0.185107    Uiso  ? H
   C758       1.0     0.471322     0.623220     0.166195    Uiso  ? C
   C759       1.0     0.461769     0.614285     0.150969    Uiso  ? C
   H452       1.0     0.466905     0.601365     0.145020    Uiso  ? H
   C760       1.0     0.485108     0.611712     0.176237    Uiso  ? C
   C761       1.0     0.529418     0.568176     0.209351    Uiso  ? C
   C762       1.0     0.542582     0.556271     0.220390    Uiso  ? C
   C763       1.0     0.547894     0.562022     0.238675    Uiso  ? C
   H453       1.0     0.541415     0.574451     0.244873    Uiso  ? H
   C764       1.0     0.560417     0.551822     0.248867    Uiso  ? C
   H454       1.0     0.565565     0.555470     0.262848    Uiso  ? H
   C765       1.0     0.568062     0.535398     0.240698    Uiso  ? C
   H455       1.0     0.578097     0.527319     0.248106    Uiso  ? H
   C766       1.0     0.564448     0.530412     0.222198    Uiso  ? C
   C767       1.0     0.550758     0.540271     0.212748    Uiso  ? C
   H456       1.0     0.549539     0.536360     0.198412    Uiso  ? H
   C768       1.0     0.573424     0.514677     0.212750    Uiso  ? C
   O379       1.0     0.572910     0.589282     0.886941    Uiso  ? O
   O380       1.0     0.599170     0.606848     0.885133    Uiso  ? O
   O381       1.0     0.597336     0.562018     0.884224    Uiso  ? O
   O382       1.0     0.623542     0.579816     0.886780    Uiso  ? O
   O383       1.0     0.594759     0.558792     0.118020    Uiso  ? O
   O384       1.0     0.619394     0.578424     0.121289    Uiso  ? O
   O385       1.0     0.577375     0.588785     0.122342    Uiso  ? O
   O386       1.0     0.600432     0.610160     0.122667    Uiso  ? O
   O387       1.0     0.492166     0.568463     0.806095    Uiso  ? O
   O388       1.0     0.492762     0.592377     0.784440    Uiso  ? O
   O389       1.0     0.529056     0.568752     0.808339    Uiso  ? O
   O390       1.0     0.528361     0.589817     0.784744    Uiso  ? O
   O391       1.0     0.527376     0.592680     0.834806    Uiso  ? O
   O392       1.0     0.530734     0.614471     0.811479    Uiso  ? O
   O393       1.0     0.492549     0.593362     0.832896    Uiso  ? O
   O394       1.0     0.494453     0.616440     0.811938    Uiso  ? O
   O395       1.0     0.567392     0.479309     0.807410    Uiso  ? O
   O396       1.0     0.590166     0.477651     0.785933    Uiso  ? O
   O397       1.0     0.594588     0.476519     0.831802    Uiso  ? O
   O398       1.0     0.617128     0.473756     0.809418    Uiso  ? O
   O399       1.0     0.594966     0.512117     0.834724    Uiso  ? O
   O400       1.0     0.617728     0.509834     0.812627    Uiso  ? O
   O401       1.0     0.573215     0.514984     0.806267    Uiso  ? O
   O402       1.0     0.595431     0.512354     0.784564    Uiso  ? O
   O403       1.0     0.416105     0.574048     0.881649    Uiso  ? O
   O404       1.0     0.393517     0.595784     0.885452    Uiso  ? O
   O405       1.0     0.443233     0.598114     0.883548    Uiso  ? O
   O406       1.0     0.419942     0.620042     0.881825    Uiso  ? O
   O407       1.0     0.442275     0.598035     0.119583    Uiso  ? O
   O408       1.0     0.422446     0.622321     0.118626    Uiso  ? O
   O409       1.0     0.415369     0.571665     0.118109    Uiso  ? O
   O410       1.0     0.395571     0.596888     0.119575    Uiso  ? O
   O411       1.0     0.491950     0.596424     0.168656    Uiso  ? O
   O412       1.0     0.490310     0.616057     0.192933    Uiso  ? O
   O413       1.0     0.526071     0.590763     0.170443    Uiso  ? O
   O414       1.0     0.526570     0.612581     0.192147    Uiso  ? O
   O415       1.0     0.523366     0.563160     0.192721    Uiso  ? O
   O416       1.0     0.521837     0.583247     0.217428    Uiso  ? O
   O417       1.0     0.486578     0.571008     0.194077    Uiso  ? O
   O418       1.0     0.487262     0.591962     0.218029    Uiso  ? O
   O419       1.0     0.410712     0.491791     0.831834    Uiso  ? O
   O420       1.0     0.388630     0.493875     0.808248    Uiso  ? O
   O421       1.0     0.436260     0.488171     0.806010    Uiso  ? O
   O422       1.0     0.414485     0.490798     0.783122    Uiso  ? O
   O423       1.0     0.437718     0.525813     0.805916    Uiso  ? O
   O424       1.0     0.417934     0.524719     0.780982    Uiso  ? O
   O425       1.0     0.413400     0.527287     0.830824    Uiso  ? O
   O426       1.0     0.394214     0.531143     0.805853    Uiso  ? O
   O427       1.0     0.562225     0.560747     0.101478    Uiso  ? O
   O428       1.0     0.507744     0.558974     0.839682    Uiso  ? O
   O429       1.0     0.560141     0.498139     0.839903    Uiso  ? O
   O430       1.0     0.448427     0.564745     0.101144    Uiso  ? O
   O431       1.0     0.503791     0.560211     0.160346    Uiso  ? O
   O432       1.0     0.445504     0.508413     0.837273    Uiso  ? O
   Zn85       1.0     0.583396     0.574584     0.102002    Uiso  ? Zn
   Zn86       1.0     0.612819     0.596901     0.103617    Uiso  ? Zn
   Zn87       1.0     0.509624     0.577910     0.822151    Uiso  ? Zn
   Zn88       1.0     0.512090     0.605627     0.796108    Uiso  ? Zn
   Zn89       1.0     0.579816     0.495409     0.822095    Uiso  ? Zn
   Zn90       1.0     0.606946     0.492598     0.796466    Uiso  ? Zn
   Zn91       1.0     0.430911     0.582988     0.100474    Uiso  ? Zn
   Zn92       1.0     0.406478     0.612135     0.101395    Uiso  ? Zn
   Zn93       1.0     0.506774     0.577942     0.179771    Uiso  ? Zn
   Zn94       1.0     0.507778     0.603156     0.207375    Uiso  ? Zn
   Zn95       1.0     0.427120     0.508532     0.819796    Uiso  ? Zn
   Zn96       1.0     0.401248     0.510528     0.792801    Uiso  ? Zn
   H457       1.0     0.517435     0.549077     0.837782    Uiso  ? H
   H458       1.0     0.494748     0.555134     0.835379    Uiso  ? H
   H459       1.0     0.500405     0.448655     0.170677    Uiso  ? H
   H460       1.0     0.508135     0.438502     0.154790    Uiso  ? H
   H461       1.0     0.543335     0.496777     0.167465    Uiso  ? H
   H462       1.0     0.551532     0.481173     0.156394    Uiso  ? H
   H463       1.0     0.564017     0.446913     0.891628    Uiso  ? H
   H464       1.0     0.559564     0.445455     0.112399    Uiso  ? H
   H465       1.0     0.457084     0.505595     0.829757    Uiso  ? H
   H466       1.0     0.447581     0.521036     0.842245    Uiso  ? H
   H467       1.0     0.448592     0.435705     0.103298    Uiso  ? H
   H468       1.0     0.444499     0.444129     0.883830    Uiso  ? H
   H469       1.0     0.485139     0.445234     0.841471    Uiso  ? H
   H470       1.0     0.502631     0.436114     0.849449    Uiso  ? H
   H471       1.0     0.456282     0.565674     0.112505    Uiso  ? H
   H472       1.0     0.457979     0.566661     0.890974    Uiso  ? H
   H473       1.0     0.444888     0.519211     0.159914    Uiso  ? H
   H474       1.0     0.440911     0.500338     0.152506    Uiso  ? H
   H475       1.0     0.506841     0.564868     0.147736    Uiso  ? H
   H476       1.0     0.490255     0.557911     0.159859    Uiso  ? H
   H477       1.0     0.561786     0.510763     0.845352    Uiso  ? H
   H478       1.0     0.560986     0.488886     0.849910    Uiso  ? H
   H479       1.0     0.566399     0.547450     0.100943    Uiso  ? H
   H480       1.0     0.554659     0.561458     0.113526    Uiso  ? H
   C769       1.0     0.471460     0.365853     0.224057    Uiso  ? C
   C770       1.0     0.473743     0.347380     0.229818    Uiso  ? C
   C771       1.0     0.498281     0.355985     0.215346    Uiso  ? C
   N1         1.0     0.487332     0.371185     0.215693    Uiso  ? N
   H481       1.0     0.458676     0.373654     0.223439    Uiso  ? H
   H482       1.0     0.463698     0.339394     0.236245    Uiso  ? H
   H483       1.0     0.511924     0.355093     0.208639    Uiso  ? H
   N2         1.0     0.490409     0.341721     0.224018    Uiso  ? N
   C772       1.0     0.498007     0.322035     0.225155    Uiso  ? C
   H484       1.0     0.494005     0.312982     0.212960    Uiso  ? H
   H485       1.0     0.513587     0.323203     0.225853    Uiso  ? H
   C773       1.0     0.493957     0.311985     0.244136    Uiso  ? C
   C774       1.0     0.503272     0.316958     0.260634    Uiso  ? C
   C775       1.0     0.481943     0.296468     0.244030    Uiso  ? C
   C776       1.0     0.499165     0.307580     0.277300    Uiso  ? C
   H486       1.0     0.515118     0.327712     0.260192    Uiso  ? H
   C777       1.0     0.478437     0.287616     0.261132    Uiso  ? C
   H487       1.0     0.475118     0.291289     0.231915    Uiso  ? H
   C778       1.0     0.486249     0.293015     0.277843    Uiso  ? C
   H488       1.0     0.505796     0.311420     0.290885    Uiso  ? H
   H489       1.0     0.469919     0.275064     0.260298    Uiso  ? H
   C779       1.0     0.482026     0.283607     0.296561    Uiso  ? C
   C780       1.0     0.480301     0.293422     0.313718    Uiso  ? C
   C781       1.0     0.479647     0.264307     0.297002    Uiso  ? C
   C782       1.0     0.474418     0.283970     0.330587    Uiso  ? C
   H490       1.0     0.482951     0.308586     0.314673    Uiso  ? H
   C783       1.0     0.472775     0.254725     0.312924    Uiso  ? C
   H491       1.0     0.484863     0.255915     0.284295    Uiso  ? H
   C784       1.0     0.470503     0.264353     0.330276    Uiso  ? C
   H492       1.0     0.472926     0.291538     0.343518    Uiso  ? H
   H493       1.0     0.468704     0.239954     0.312867    Uiso  ? H
   C785       1.0     0.463024     0.254455     0.346918    Uiso  ? C
   H494       1.0     0.456804     0.264322     0.355856    Uiso  ? H
   H495       1.0     0.451674     0.244889     0.343641    Uiso  ? H
   N3         1.0     0.477226     0.244198     0.357128    Uiso  ? N
   C786       1.0     0.495763     0.246956     0.358111    Uiso  ? C
   C787       1.0     0.473934     0.229761     0.368349    Uiso  ? C
   C788       1.0     0.503725     0.234730     0.370354    Uiso  ? C
   H496       1.0     0.503044     0.258405     0.351395    Uiso  ? H
   H497       1.0     0.460932     0.223796     0.371116    Uiso  ? H
   H498       1.0     0.517933     0.235129     0.375317    Uiso  ? H
   N4         1.0     0.489607     0.223605     0.376570    Uiso  ? N
   C789       1.0     0.481851     0.776317     0.364795    Uiso  ? C
   C790       1.0     0.479771     0.757927     0.357835    Uiso  ? C
   C791       1.0     0.486721     0.755578     0.386374    Uiso  ? C
   N5         1.0     0.486399     0.774705     0.383111    Uiso  ? N
   H499       1.0     0.478221     0.789113     0.357918    Uiso  ? H
   H500       1.0     0.474003     0.754175     0.344438    Uiso  ? H
   H501       1.0     0.490240     0.750175     0.399571    Uiso  ? H
   N6         1.0     0.484841     0.745057     0.370568    Uiso  ? N
   C792       1.0     0.485272     0.724066     0.369340    Uiso  ? C
   H502       1.0     0.496740     0.719289     0.378817    Uiso  ? H
   H503       1.0     0.472475     0.718340     0.374791    Uiso  ? H
   C793       1.0     0.487941     0.716600     0.350426    Uiso  ? C
   C794       1.0     0.478299     0.701420     0.343683    Uiso  ? C
   C795       1.0     0.504435     0.722698     0.341083    Uiso  ? C
   C796       1.0     0.481986     0.694792     0.325615    Uiso  ? C
   H504       1.0     0.467275     0.694260     0.350948    Uiso  ? H
   C797       1.0     0.510077     0.714393     0.324286    Uiso  ? C
   H505       1.0     0.514445     0.732360     0.349180    Uiso  ? H
   C798       1.0     0.497938     0.700736     0.315506    Uiso  ? C
   H506       1.0     0.471650     0.685610     0.319125    Uiso  ? H
   H507       1.0     0.524606     0.716220     0.320637    Uiso  ? H
   C799       1.0     0.502751     0.691261     0.296755    Uiso  ? C
   C800       1.0     0.488609     0.690215     0.282874    Uiso  ? C
   C801       1.0     0.521104     0.687081     0.292068    Uiso  ? C
   C802       1.0     0.491837     0.682723     0.265669    Uiso  ? C
   H508       1.0     0.474933     0.695863     0.284532    Uiso  ? H
   C803       1.0     0.525510     0.679558     0.274894    Uiso  ? C
   H509       1.0     0.532523     0.690841     0.300512    Uiso  ? H
   C804       1.0     0.510895     0.677453     0.260917    Uiso  ? C
   H510       1.0     0.480864     0.682233     0.255271    Uiso  ? H
   H511       1.0     0.539957     0.676398     0.271239    Uiso  ? H
   C805       1.0     0.516136     0.670331     0.242046    Uiso  ? C
   H512       1.0     0.505388     0.675650     0.231152    Uiso  ? H
   H513       1.0     0.530727     0.675400     0.238097    Uiso  ? H
   N7         1.0     0.514739     0.649866     0.240261    Uiso  ? N
   C806       1.0     0.517831     0.636526     0.253177    Uiso  ? C
   C807       1.0     0.510805     0.640107     0.223771    Uiso  ? C
   C808       1.0     0.515833     0.619352     0.244406    Uiso  ? C
   H514       1.0     0.520481     0.638027     0.267816    Uiso  ? H
   H515       1.0     0.509238     0.645807     0.209857    Uiso  ? H
   H516       1.0     0.519024     0.605806     0.251530    Uiso  ? H
   N8         1.0     0.511777     0.621634     0.226221    Uiso  ? N
   C809       1.0     0.516542     0.775998     0.638206    Uiso  ? C
   C810       1.0     0.512913     0.758898     0.646264    Uiso  ? C
   C811       1.0     0.493957     0.762151     0.623502    Uiso  ? C
   N9         1.0     0.504972     0.777804     0.623586    Uiso  ? N
   H517       1.0     0.528140     0.784965     0.641144    Uiso  ? H
   H518       1.0     0.520555     0.753140     0.657922    Uiso  ? H
   H519       1.0     0.481981     0.758522     0.613935    Uiso  ? H
   N10        1.0     0.499401     0.749860     0.637215    Uiso  ? N
   C812       1.0     0.492901     0.730609     0.640047    Uiso  ? C
   H520       1.0     0.477191     0.730644     0.636983    Uiso  ? H
   H521       1.0     0.498727     0.722091     0.628217    Uiso  ? H
   C813       1.0     0.497010     0.722890     0.659144    Uiso  ? C
   C814       1.0     0.512695     0.711665     0.661549    Uiso  ? C
   C815       1.0     0.486743     0.727036     0.675342    Uiso  ? C
   C816       1.0     0.516963     0.703261     0.678790    Uiso  ? C
   H522       1.0     0.519406     0.707333     0.649119    Uiso  ? H
   C817       1.0     0.491427     0.719217     0.692901    Uiso  ? C
   H523       1.0     0.473564     0.733163     0.674222    Uiso  ? H
   C818       1.0     0.506847     0.707218     0.694753    Uiso  ? C
   H524       1.0     0.527062     0.692068     0.679062    Uiso  ? H
   H525       1.0     0.483326     0.723209     0.705217    Uiso  ? H
   C819       1.0     0.511378     0.698307     0.712613    Uiso  ? C
   C820       1.0     0.530719     0.695314     0.718184    Uiso  ? C
   C821       1.0     0.496924     0.694969     0.726359    Uiso  ? C
   C822       1.0     0.534974     0.687565     0.735189    Uiso  ? C
   H526       1.0     0.541469     0.696283     0.707473    Uiso  ? H
   C823       1.0     0.502451     0.687456     0.743418    Uiso  ? C
   H527       1.0     0.481707     0.696363     0.723221    Uiso  ? H
   C824       1.0     0.521029     0.682653     0.747738    Uiso  ? C
   H528       1.0     0.549584     0.683254     0.738050    Uiso  ? H
   H529       1.0     0.492856     0.681930     0.752800    Uiso  ? H
   C825       1.0     0.526322     0.672138     0.765785    Uiso  ? C
   H530       1.0     0.542239     0.671319     0.766050    Uiso  ? H
   H531       1.0     0.522291     0.680120     0.778504    Uiso  ? H
   N11        1.0     0.518056     0.653300     0.766951    Uiso  ? N
   C826       1.0     0.513795     0.641075     0.752293    Uiso  ? C
   C827       1.0     0.516759     0.643165     0.782254    Uiso  ? C
   C828       1.0     0.512065     0.624068     0.760021    Uiso  ? C
   H532       1.0     0.513384     0.643627     0.737438    Uiso  ? H
   H533       1.0     0.521955     0.647425     0.796435    Uiso  ? H
   H534       1.0     0.508468     0.611176     0.752818    Uiso  ? H
   N12        1.0     0.513597     0.625087     0.778827    Uiso  ? N
   C829       1.0     0.484516     0.383294     0.757307    Uiso  ? C
   C830       1.0     0.482881     0.366106     0.748508    Uiso  ? C
   C831       1.0     0.496631     0.362506     0.774965    Uiso  ? C
   N13        1.0     0.492721     0.380569     0.773921    Uiso  ? N
   H535       1.0     0.479051     0.395641     0.751765    Uiso  ? H
   H536       1.0     0.477230     0.363013     0.734975    Uiso  ? H
   H537       1.0     0.500566     0.355194     0.787820    Uiso  ? H
   N14        1.0     0.490836     0.352778     0.759666    Uiso  ? N
   C832       1.0     0.489145     0.331765     0.758070    Uiso  ? C
   H538       1.0     0.499375     0.324480     0.768822    Uiso  ? H
   H539       1.0     0.474486     0.328761     0.759832    Uiso  ? H
   C833       1.0     0.494519     0.327068     0.738324    Uiso  ? C
   C834       1.0     0.480930     0.323231     0.724485    Uiso  ? C
   C835       1.0     0.513450     0.321973     0.734695    Uiso  ? C
   C836       1.0     0.486057     0.315736     0.706733    Uiso  ? C
   H540       1.0     0.466083     0.324513     0.727276    Uiso  ? H
   C837       1.0     0.518265     0.313673     0.717284    Uiso  ? C
   H541       1.0     0.524463     0.322710     0.744675    Uiso  ? H
   C838       1.0     0.504183     0.309639     0.703559    Uiso  ? C
   H542       1.0     0.476053     0.312746     0.695117    Uiso  ? H
   H543       1.0     0.532841     0.311106     0.714676    Uiso  ? H
   C839       1.0     0.509299     0.299372     0.685516    Uiso  ? C
   C840       1.0     0.500117     0.304393     0.668723    Uiso  ? C
   C841       1.0     0.522447     0.284574     0.685198    Uiso  ? C
   C842       1.0     0.505290     0.295014     0.652236    Uiso  ? C
   H544       1.0     0.488962     0.315262     0.667942    Uiso  ? H
   C843       1.0     0.527552     0.275631     0.668453    Uiso  ? C
   H545       1.0     0.529262     0.278977     0.697651    Uiso  ? H
   C844       1.0     0.518717     0.280882     0.651782    Uiso  ? C
   H546       1.0     0.499200     0.301296     0.639694    Uiso  ? H
   H547       1.0     0.537599     0.263375     0.669248    Uiso  ? H
   C845       1.0     0.522866     0.271910     0.633591    Uiso  ? C
   H548       1.0     0.517215     0.281132     0.621319    Uiso  ? H
   H549       1.0     0.538392     0.270078     0.631747    Uiso  ? H
   N15        1.0     0.514212     0.253997     0.631992    Uiso  ? N
   C846       1.0     0.498279     0.248449     0.639900    Uiso  ? C
   C847       1.0     0.519774     0.240218     0.621340    Uiso  ? C
   C848       1.0     0.492803     0.232031     0.631725    Uiso  ? C
   H550       1.0     0.488600     0.257302     0.649235    Uiso  ? H
   H551       1.0     0.531650     0.240777     0.612992    Uiso  ? H
   H552       1.0     0.479922     0.224984     0.634614    Uiso  ? H
   N16        1.0     0.506465     0.226821     0.619558    Uiso  ? N
   C849       1.0     0.634673     0.229080     0.506486    Uiso  ? C
   C850       1.0     0.647408     0.242510     0.499686    Uiso  ? C
   C851       1.0     0.633035     0.230808     0.476320    Uiso  ? C
   N17        1.0     0.625805     0.222234     0.491802    Uiso  ? N
   H553       1.0     0.631806     0.226516     0.520918    Uiso  ? H
   H554       1.0     0.655710     0.252064     0.507851    Uiso  ? H
   H555       1.0     0.629780     0.226575     0.462622    Uiso  ? H
   N18        1.0     0.646793     0.242533     0.480961    Uiso  ? N
   C852       1.0     0.662428     0.249253     0.469995    Uiso  ? C
   H556       1.0     0.672825     0.237679     0.469897    Uiso  ? H
   H557       1.0     0.657722     0.250886     0.455270    Uiso  ? H
   C853       1.0     0.671840     0.267444     0.476750    Uiso  ? C
   C854       1.0     0.665241     0.285150     0.471337    Uiso  ? C
   C855       1.0     0.686885     0.266555     0.490048    Uiso  ? C
   C856       1.0     0.673871     0.301418     0.477978    Uiso  ? C
   H558       1.0     0.652717     0.286167     0.463015    Uiso  ? H
   C857       1.0     0.694374     0.282577     0.497299    Uiso  ? C
   H559       1.0     0.692288     0.253072     0.494397    Uiso  ? H
   C858       1.0     0.689217     0.300423     0.490901    Uiso  ? C
   H560       1.0     0.668329     0.313963     0.472920    Uiso  ? H
   H561       1.0     0.705132     0.281251     0.507751    Uiso  ? H
   C859       1.0     0.695932     0.318249     0.500038    Uiso  ? C
   C860       1.0     0.685402     0.335205     0.500553    Uiso  ? C
   C861       1.0     0.714407     0.319347     0.507930    Uiso  ? C
   C862       1.0     0.692693     0.350504     0.508791    Uiso  ? C
   H562       1.0     0.671423     0.335569     0.494631    Uiso  ? H
   C863       1.0     0.720751     0.334914     0.517317    Uiso  ? C
   H563       1.0     0.723762     0.307311     0.508758    Uiso  ? H
   C864       1.0     0.710223     0.350758     0.517004    Uiso  ? C
   H564       1.0     0.684073     0.362254     0.509028    Uiso  ? H
   H565       1.0     0.733429     0.334589     0.524729    Uiso  ? H
   C865       1.0     0.719248     0.369215     0.523189    Uiso  ? C
   H566       1.0     0.708926     0.381647     0.522851    Uiso  ? H
   H567       1.0     0.723835     0.368490     0.537609    Uiso  ? H
   N19        1.0     0.735164     0.374721     0.511812    Uiso  ? N
   C866       1.0     0.738795     0.368605     0.494417    Uiso  ? C
   C867       1.0     0.749679     0.385356     0.516960    Uiso  ? C
   C868       1.0     0.755577     0.377561     0.488470    Uiso  ? C
   H568       1.0     0.728841     0.360713     0.485471    Uiso  ? H
   H569       1.0     0.752465     0.389943     0.531069    Uiso  ? H
   H570       1.0     0.760896     0.376613     0.473983    Uiso  ? H
   N20        1.0     0.761449     0.388619     0.502720    Uiso  ? N
   C869       1.0     0.627546     0.763602     0.510146    Uiso  ? C
   C870       1.0     0.637287     0.748925     0.501367    Uiso  ? C
   C871       1.0     0.628357     0.767927     0.480254    Uiso  ? C
   N21        1.0     0.621099     0.775072     0.495854    Uiso  ? N
   H571       1.0     0.622503     0.763896     0.523657    Uiso  ? H
   H572       1.0     0.643399     0.736874     0.509180    Uiso  ? H
   H573       1.0     0.626415     0.774048     0.466474    Uiso  ? H
   N22        1.0     0.638805     0.752438     0.482971    Uiso  ? N
   C872       1.0     0.646291     0.740819     0.468074    Uiso  ? C
   H574       1.0     0.635360     0.730435     0.463845    Uiso  ? H
   H575       1.0     0.647486     0.749847     0.454478    Uiso  ? H
   C873       1.0     0.664823     0.732101     0.473400    Uiso  ? C
   C874       1.0     0.681064     0.742483     0.477402    Uiso  ? C
   C875       1.0     0.666715     0.712155     0.474015    Uiso  ? C
   C876       1.0     0.698121     0.733551     0.480692    Uiso  ? C
   H576       1.0     0.680486     0.757490     0.474606    Uiso  ? H
   C877       1.0     0.684584     0.703121     0.477671    Uiso  ? C
   H577       1.0     0.654767     0.702866     0.471638    Uiso  ? H
   C878       1.0     0.700391     0.714184     0.481348    Uiso  ? C
   H578       1.0     0.710209     0.742503     0.481308    Uiso  ? H
   H579       1.0     0.684833     0.687187     0.478122    Uiso  ? H
   C879       1.0     0.718722     0.705915     0.482310    Uiso  ? C
   C880       1.0     0.722949     0.690544     0.471043    Uiso  ? C
   C881       1.0     0.732822     0.713864     0.493142    Uiso  ? C
   C882       1.0     0.741218     0.683335     0.471949    Uiso  ? C
   H580       1.0     0.713300     0.684959     0.459748    Uiso  ? H
   C883       1.0     0.749542     0.705018     0.496483    Uiso  ? C
   H581       1.0     0.730989     0.725270     0.503520    Uiso  ? H
   C884       1.0     0.754635     0.690411     0.484839    Uiso  ? C
   H582       1.0     0.745047     0.671819     0.462181    Uiso  ? H
   H583       1.0     0.759063     0.709549     0.508189    Uiso  ? H
   C885       1.0     0.775276     0.683444     0.486918    Uiso  ? C
   H584       1.0     0.782527     0.685954     0.473207    Uiso  ? H
   H585       1.0     0.783481     0.691769     0.497328    Uiso  ? H
   N23        1.0     0.776221     0.662881     0.489950    Uiso  ? N
   C886       1.0     0.762934     0.651134     0.497580    Uiso  ? C
   C887       1.0     0.789572     0.650937     0.485684    Uiso  ? C
   C888       1.0     0.768960     0.632803     0.497459    Uiso  ? C
   H586       1.0     0.749882     0.655275     0.502460    Uiso  ? H
   H587       1.0     0.802192     0.655275     0.478973    Uiso  ? H
   H588       1.0     0.761209     0.620808     0.503091    Uiso  ? H
   N24        1.0     0.785713     0.632846     0.490265    Uiso  ? N
   C889       1.0     0.224941     0.363325     0.522298    Uiso  ? C
   C890       1.0     0.234280     0.346512     0.520902    Uiso  ? C
   C891       1.0     0.215294     0.349638     0.497926    Uiso  ? C
   N25        1.0     0.212745     0.365183     0.508076    Uiso  ? N
   H589       1.0     0.225788     0.373107     0.533401    Uiso  ? H
   H590       1.0     0.242611     0.339627     0.530935    Uiso  ? H
   H591       1.0     0.205988     0.345483     0.487124    Uiso  ? H
   N26        1.0     0.227531     0.337540     0.505874    Uiso  ? N
   C892       1.0     0.229938     0.317538     0.501444    Uiso  ? C
   H592       1.0     0.220352     0.309428     0.510786    Uiso  ? H
   H593       1.0     0.224440     0.313836     0.487449    Uiso  ? H
   C893       1.0     0.249753     0.310843     0.502187    Uiso  ? C
   C894       1.0     0.261660     0.312166     0.486812    Uiso  ? C
   C895       1.0     0.257120     0.302535     0.518558    Uiso  ? C
   C896       1.0     0.280914     0.306275     0.487810    Uiso  ? C
   H594       1.0     0.257222     0.317698     0.473664    Uiso  ? H
   C897       1.0     0.275617     0.298196     0.519957    Uiso  ? C
   H595       1.0     0.248663     0.300273     0.530778    Uiso  ? H
   C898       1.0     0.287676     0.300035     0.504453    Uiso  ? C
   H596       1.0     0.289355     0.309197     0.475483    Uiso  ? H
   H597       1.0     0.280284     0.290978     0.532487    Uiso  ? H
   C899       1.0     0.307321     0.294930     0.506454    Uiso  ? C
   C900       1.0     0.317131     0.297326     0.523034    Uiso  ? C
   C901       1.0     0.317202     0.286902     0.491175    Uiso  ? C
   C902       1.0     0.335639     0.292723     0.524435    Uiso  ? C
   H598       1.0     0.311573     0.303743     0.535712    Uiso  ? H
   C903       1.0     0.335706     0.283074     0.492054    Uiso  ? C
   H599       1.0     0.311219     0.283456     0.477737    Uiso  ? H
   C904       1.0     0.345135     0.285617     0.508949    Uiso  ? C
   H600       1.0     0.343167     0.295301     0.537819    Uiso  ? H
   H601       1.0     0.343354     0.276828     0.480189    Uiso  ? H
   C905       1.0     0.365150     0.278267     0.510922    Uiso  ? C
   H602       1.0     0.374171     0.282960     0.499994    Uiso  ? H
   H603       1.0     0.369700     0.284486     0.524739    Uiso  ? H
   N27        1.0     0.366490     0.257536     0.511476    Uiso  ? N
   C906       1.0     0.351784     0.245759     0.513872    Uiso  ? C
   C907       1.0     0.381910     0.246627     0.509666    Uiso  ? C
   C908       1.0     0.358416     0.227559     0.512582    Uiso  ? C
   H604       1.0     0.336180     0.250270     0.516235    Uiso  ? H
   H605       1.0     0.396080     0.252732     0.508226    Uiso  ? H
   H606       1.0     0.350140     0.214699     0.512674    Uiso  ? H
   N28        1.0     0.377306     0.228273     0.509024    Uiso  ? N
   C909       1.0     0.253453     0.614798     0.490909    Uiso  ? C
   C910       1.0     0.260909     0.631917     0.484849    Uiso  ? C
   C911       1.0     0.231370     0.634492     0.485825    Uiso  ? C
   N29        1.0     0.234820     0.617153     0.491904    Uiso  ? N
   H607       1.0     0.261245     0.602535     0.493822    Uiso  ? H
   H608       1.0     0.274682     0.634432     0.481669    Uiso  ? H
   H609       1.0     0.217666     0.640639     0.484124    Uiso  ? H
   N30        1.0     0.247364     0.643627     0.481502    Uiso  ? N
   C912       1.0     0.248642     0.661613     0.471967    Uiso  ? C
   H610       1.0     0.250564     0.658650     0.457194    Uiso  ? H
   H611       1.0     0.236282     0.670232     0.475024    Uiso  ? H
   C913       1.0     0.265469     0.672769     0.477479    Uiso  ? C
   C914       1.0     0.266027     0.682579     0.494681    Uiso  ? C
   C915       1.0     0.281223     0.674445     0.465951    Uiso  ? C
   C916       1.0     0.281737     0.692571     0.500573    Uiso  ? C
   H612       1.0     0.252940     0.683206     0.502743    Uiso  ? H
   C917       1.0     0.297974     0.682768     0.472293    Uiso  ? C
   H613       1.0     0.282200     0.667519     0.452658    Uiso  ? H
   C918       1.0     0.298585     0.692095     0.489281    Uiso  ? C
   H614       1.0     0.281780     0.699522     0.513224    Uiso  ? H
   H615       1.0     0.309824     0.682042     0.463770    Uiso  ? H
   C919       1.0     0.315273     0.701405     0.497204    Uiso  ? C
   C920       1.0     0.319792     0.699008     0.516543    Uiso  ? C
   C921       1.0     0.327124     0.710954     0.485233    Uiso  ? C
   C922       1.0     0.336975     0.707141     0.522418    Uiso  ? C
   H616       1.0     0.311587     0.691953     0.526949    Uiso  ? H
   C923       1.0     0.342589     0.720064     0.492152    Uiso  ? C
   H617       1.0     0.324130     0.711342     0.470252    Uiso  ? H
   C924       1.0     0.348591     0.716714     0.510227    Uiso  ? C
   H618       1.0     0.339971     0.705711     0.536840    Uiso  ? H
   H619       1.0     0.351210     0.728463     0.482911    Uiso  ? H
   C925       1.0     0.366176     0.726548     0.516931    Uiso  ? C
   H620       1.0     0.369835     0.723225     0.531909    Uiso  ? H
   H621       1.0     0.378530     0.722168     0.507908    Uiso  ? H
   N31        1.0     0.364557     0.746750     0.515603    Uiso  ? N
   C926       1.0     0.351788     0.757283     0.524439    Uiso  ? C
   C927       1.0     0.378615     0.758386     0.510265    Uiso  ? C
   C928       1.0     0.357268     0.775503     0.522795    Uiso  ? C
   H622       1.0     0.338458     0.751990     0.530985    Uiso  ? H
   H623       1.0     0.392163     0.754194     0.505474    Uiso  ? H
   H624       1.0     0.351294     0.785665     0.533076    Uiso  ? H
   N32        1.0     0.374430     0.776098     0.514101    Uiso  ? N
   C929       1.0     0.629372     0.501459     0.230779    Uiso  ? C
   C930       1.0     0.643001     0.494074     0.242651    Uiso  ? C
   C931       1.0     0.625626     0.471646     0.232759    Uiso  ? C
   N33        1.0     0.618897     0.487260     0.224864    Uiso  ? N
   H625       1.0     0.628318     0.514791     0.224873    Uiso  ? H
   H626       1.0     0.654142     0.501004     0.250085    Uiso  ? H
   H627       1.0     0.622097     0.457315     0.229230    Uiso  ? H
   N34        1.0     0.640479     0.475196     0.244368    Uiso  ? N
   C932       1.0     0.651728     0.460253     0.253212    Uiso  ? C
   H628       1.0     0.643020     0.450269     0.261205    Uiso  ? H
   H629       1.0     0.659313     0.452954     0.241585    Uiso  ? H
   C933       1.0     0.666049     0.468459     0.266150    Uiso  ? C
   C934       1.0     0.685275     0.469341     0.261772    Uiso  ? C
   C935       1.0     0.659888     0.475847     0.283207    Uiso  ? C
   C936       1.0     0.697624     0.476266     0.274999    Uiso  ? C
   H630       1.0     0.690766     0.464612     0.248915    Uiso  ? H
   C937       1.0     0.671907     0.481569     0.296704    Uiso  ? C
   H631       1.0     0.645216     0.474215     0.287177    Uiso  ? H
   C938       1.0     0.690874     0.482195     0.292588    Uiso  ? C
   H632       1.0     0.712029     0.476903     0.272009    Uiso  ? H
   H633       1.0     0.665798     0.488220     0.309029    Uiso  ? H
   C939       1.0     0.704703     0.490094     0.306683    Uiso  ? C
   C940       1.0     0.719512     0.502335     0.301329    Uiso  ? C
   C941       1.0     0.702635     0.485559     0.325749    Uiso  ? C
   C942       1.0     0.730194     0.512181     0.315086    Uiso  ? C
   H634       1.0     0.719816     0.506966     0.287069    Uiso  ? H
   C943       1.0     0.714580     0.493973     0.338464    Uiso  ? C
   H635       1.0     0.691452     0.475016     0.328927    Uiso  ? H
   C944       1.0     0.727533     0.507629     0.333857    Uiso  ? C
   H636       1.0     0.739947     0.523548     0.311082    Uiso  ? H
   H637       1.0     0.711091     0.489342     0.352970    Uiso  ? H
   C945       1.0     0.738221     0.519200     0.348003    Uiso  ? C
   H638       1.0     0.744278     0.532180     0.341575    Uiso  ? H
   H639       1.0     0.727467     0.523269     0.359271    Uiso  ? H
   N35        1.0     0.753350     0.508163     0.355541    Uiso  ? N
   C946       1.0     0.764418     0.496231     0.346939    Uiso  ? C
   C947       1.0     0.761146     0.510138     0.372506    Uiso  ? C
   C948       1.0     0.778382     0.490913     0.357564    Uiso  ? C
   H640       1.0     0.763855     0.492079     0.332437    Uiso  ? H
   H641       1.0     0.755239     0.518027     0.384599    Uiso  ? H
   H642       1.0     0.788081     0.480566     0.353637    Uiso  ? H
   N36        1.0     0.777616     0.501277     0.373668    Uiso  ? N
   C949       1.0     0.367695     0.490787     0.229179    Uiso  ? C
   C950       1.0     0.351410     0.494680     0.237149    Uiso  ? C
   C951       1.0     0.360891     0.519812     0.223761    Uiso  ? C
   N37        1.0     0.373654     0.506558     0.221670    Uiso  ? N
   H643       1.0     0.374757     0.477632     0.227527    Uiso  ? H
   H644       1.0     0.342479     0.484998     0.242802    Uiso  ? H
   H645       1.0     0.360639     0.532886     0.215858    Uiso  ? H
   N38        1.0     0.346957     0.512961     0.233796    Uiso  ? N
   C952       1.0     0.329067     0.522100     0.237451    Uiso  ? C
   H646       1.0     0.330520     0.537495     0.236286    Uiso  ? H
   H647       1.0     0.319775     0.517839     0.226444    Uiso  ? H
   C953       1.0     0.320307     0.516535     0.255866    Uiso  ? C
   C954       1.0     0.309754     0.499947     0.256211    Uiso  ? C
   C955       1.0     0.323476     0.527005     0.273100    Uiso  ? C
   C956       1.0     0.303438     0.493330     0.273551    Uiso  ? C
   H648       1.0     0.306029     0.493055     0.243886    Uiso  ? H
   C957       1.0     0.316391     0.520889     0.289779    Uiso  ? C
   H649       1.0     0.332971     0.539097     0.271457    Uiso  ? H
   C958       1.0     0.307346     0.503343     0.290262    Uiso  ? C
   H650       1.0     0.294845     0.481305     0.273452    Uiso  ? H
   H651       1.0     0.318855     0.528889     0.302966    Uiso  ? H
   C959       1.0     0.298000     0.496099     0.307787    Uiso  ? C
   C960       1.0     0.295383     0.477486     0.311480    Uiso  ? C
   C961       1.0     0.290108     0.508816     0.320780    Uiso  ? C
   C962       1.0     0.287482     0.471434     0.328374    Uiso  ? C
   H652       1.0     0.300978     0.466502     0.302567    Uiso  ? H
   C963       1.0     0.281741     0.503378     0.337908    Uiso  ? C
   H653       1.0     0.290472     0.523237     0.317219    Uiso  ? H
   C964       1.0     0.280479     0.483963     0.341115    Uiso  ? C
   H654       1.0     0.286596     0.456173     0.329932    Uiso  ? H
   H655       1.0     0.277727     0.512848     0.349126    Uiso  ? H
   C965       1.0     0.273030     0.477083     0.359176    Uiso  ? C
   H656       1.0     0.276071     0.461944     0.360922    Uiso  ? H
   H657       1.0     0.280474     0.484068     0.371371    Uiso  ? H
   N39        1.0     0.252819     0.480660     0.361337    Uiso  ? N
   C966       1.0     0.239714     0.482343     0.347716    Uiso  ? C
   C967       1.0     0.243704     0.481410     0.377851    Uiso  ? C
   C968       1.0     0.222456     0.483803     0.356363    Uiso  ? C
   H658       1.0     0.242723     0.481688     0.332860    Uiso  ? H
   H659       1.0     0.250466     0.481512     0.391924    Uiso  ? H
   H660       1.0     0.209020     0.486109     0.350029    Uiso  ? H
   N40        1.0     0.225015     0.483728     0.375096    Uiso  ? N
   C969       1.0     0.238502     0.499014     0.619172    Uiso  ? C
   C970       1.0     0.248188     0.496326     0.636197    Uiso  ? C
   C971       1.0     0.218165     0.494405     0.640899    Uiso  ? C
   N41        1.0     0.220117     0.498626     0.621992    Uiso  ? N
   H661       1.0     0.245342     0.502069     0.605280    Uiso  ? H
   H662       1.0     0.263067     0.497834     0.638449    Uiso  ? H
   H663       1.0     0.205659     0.491008     0.647479    Uiso  ? H
   N42        1.0     0.234694     0.493832     0.649673    Uiso  ? N
   C972       1.0     0.238941     0.490136     0.668871    Uiso  ? C
   H664       1.0     0.228843     0.495577     0.678402    Uiso  ? H
   H665       1.0     0.236499     0.475276     0.671398    Uiso  ? H
   C973       1.0     0.257984     0.495949     0.674662    Uiso  ? C
   C974       1.0     0.269923     0.482311     0.681814    Uiso  ? C
   C975       1.0     0.262787     0.514129     0.677061    Uiso  ? C
   C976       1.0     0.287382     0.487246     0.690187    Uiso  ? C
   H666       1.0     0.267094     0.467541     0.680425    Uiso  ? H
   C977       1.0     0.279899     0.519533     0.685883    Uiso  ? C
   H667       1.0     0.253451     0.524228     0.670573    Uiso  ? H
   C978       1.0     0.293135     0.506067     0.690670    Uiso  ? C
   H668       1.0     0.296691     0.475634     0.693821    Uiso  ? H
   H669       1.0     0.283807     0.534220     0.686126    Uiso  ? H
   C979       1.0     0.311310     0.510418     0.700217    Uiso  ? C
   C980       1.0     0.326156     0.497680     0.702001    Uiso  ? C
   C981       1.0     0.313826     0.527828     0.709766    Uiso  ? C
   C982       1.0     0.342789     0.501725     0.710645    Uiso  ? C
   H670       1.0     0.325560     0.484415     0.694207    Uiso  ? H
   C983       1.0     0.330405     0.532484     0.718317    Uiso  ? C
   H671       1.0     0.301992     0.537084     0.710814    Uiso  ? H
   C984       1.0     0.345532     0.519277     0.718397    Uiso  ? C
   H672       1.0     0.353619     0.491967     0.709892    Uiso  ? H
   H673       1.0     0.332679     0.545726     0.724182    Uiso  ? H
   C985       1.0     0.364268     0.524547     0.727469    Uiso  ? C
   H674       1.0     0.375831     0.519478     0.718725    Uiso  ? H
   H675       1.0     0.365853     0.540446     0.726899    Uiso  ? H
   N43        1.0     0.367142     0.517897     0.746849    Uiso  ? N
   C986       1.0     0.355126     0.520605     0.761530    Uiso  ? C
   C987       1.0     0.383682     0.512204     0.755195    Uiso  ? C
   C988       1.0     0.364890     0.518066     0.777741    Uiso  ? C
   H676       1.0     0.341227     0.525674     0.760284    Uiso  ? H
   H677       1.0     0.397204     0.509267     0.748385    Uiso  ? H
   H678       1.0     0.358886     0.523121     0.791059    Uiso  ? H
   N44        1.0     0.382600     0.512275     0.774412    Uiso  ? N
   C989       1.0     0.644314     0.491337     0.782383    Uiso  ? C
   C990       1.0     0.654558     0.487152     0.766173    Uiso  ? C
   C991       1.0     0.624995     0.486817     0.759678    Uiso  ? C
   N45        1.0     0.625840     0.491781     0.777920    Uiso  ? N
   H679       1.0     0.648792     0.493248     0.797141    Uiso  ? H
   H680       1.0     0.670043     0.484222     0.766457    Uiso  ? H
   H681       1.0     0.611792     0.484624     0.752287    Uiso  ? H
   N46        1.0     0.642251     0.484394     0.752538    Uiso  ? N
   C992       1.0     0.645434     0.477912     0.734122    Uiso  ? C
   H682       1.0     0.648714     0.462620     0.735325    Uiso  ? H
   H683       1.0     0.633521     0.479110     0.724725    Uiso  ? H
   C993       1.0     0.661627     0.488881     0.724935    Uiso  ? C
   C994       1.0     0.657507     0.506788     0.717852    Uiso  ? C
   C995       1.0     0.679318     0.479768     0.721145    Uiso  ? C
   C996       1.0     0.670875     0.515796     0.706587    Uiso  ? C
   H684       1.0     0.645130     0.515794     0.721803    Uiso  ? H
   C997       1.0     0.691774     0.488650     0.709140    Uiso  ? C
   H685       1.0     0.683199     0.466842     0.726041    Uiso  ? H
   C998       1.0     0.687767     0.506579     0.702068    Uiso  ? C
   H686       1.0     0.668822     0.529600     0.702249    Uiso  ? H
   H687       1.0     0.704574     0.482262     0.704830    Uiso  ? H
   C999       1.0     0.701367     0.514487     0.688218    Uiso  ? C
   C1000      1.0     0.696139     0.520050     0.670503    Uiso  ? C
   C1001      1.0     0.719237     0.519288     0.694647    Uiso  ? C
   C1002      1.0     0.708460     0.528299     0.657656    Uiso  ? C
   H688       1.0     0.681480     0.519452     0.666344    Uiso  ? H
   C1003      1.0     0.731678     0.528398     0.682964    Uiso  ? C
   H689       1.0     0.722409     0.519570     0.709889    Uiso  ? H
   C1004      1.0     0.726699     0.532323     0.663798    Uiso  ? C
   H690       1.0     0.703898     0.531184     0.643634    Uiso  ? H
   H691       1.0     0.744450     0.533055     0.689529    Uiso  ? H
   C1005      1.0     0.741241     0.540916     0.651095    Uiso  ? C
   H692       1.0     0.735379     0.552656     0.643217    Uiso  ? H
   H693       1.0     0.752542     0.548106     0.659290    Uiso  ? H
   N47        1.0     0.749917     0.527021     0.639880    Uiso  ? N
   C1006      1.0     0.746363     0.509023     0.638053    Uiso  ? C
   C1007      1.0     0.764940     0.531175     0.629109    Uiso  ? C
   C1008      1.0     0.760084     0.502151     0.625585    Uiso  ? C
   H694       1.0     0.736780     0.500300     0.645794    Uiso  ? H
   H695       1.0     0.770265     0.544998     0.627621    Uiso  ? H
   H696       1.0     0.760616     0.488211     0.621028    Uiso  ? H
   N48        1.0     0.771026     0.516775     0.619209    Uiso  ? N
   C1009      1.0     0.646523     0.618973     0.889187    Uiso  ? C
   C1010      1.0     0.660080     0.628974     0.898123    Uiso  ? C
   C1011      1.0     0.640546     0.620192     0.118411    Uiso  ? C
   N49        1.0     0.634235     0.613217     0.102406    Uiso  ? N
   H697       1.0     0.645790     0.614894     0.874849    Uiso  ? H
   H698       1.0     0.671301     0.635907     0.890904    Uiso  ? H
   H699       1.0     0.634032     0.618089     0.131910    Uiso  ? H
   N50        1.0     0.655975     0.630644     0.116165    Uiso  ? N
   C1012      1.0     0.667706     0.636826     0.131647    Uiso  ? C
   H700       1.0     0.659715     0.637504     0.145053    Uiso  ? H
   H701       1.0     0.679169     0.625995     0.133540    Uiso  ? H
   C1013      1.0     0.674855     0.656666     0.129311    Uiso  ? C
   C1014      1.0     0.693594     0.660097     0.130104    Uiso  ? C
   C1015      1.0     0.663186     0.671179     0.122846    Uiso  ? C
   C1016      1.0     0.702478     0.676414     0.123890    Uiso  ? C
   H702       1.0     0.702795     0.648851     0.133823    Uiso  ? H
   C1017      1.0     0.671084     0.688293     0.117573    Uiso  ? C
   H703       1.0     0.647987     0.669957     0.125321    Uiso  ? H
   C1018      1.0     0.691067     0.692156     0.119633    Uiso  ? C
   H704       1.0     0.717592     0.677943     0.123041    Uiso  ? H
   H705       1.0     0.661264     0.698636     0.112946    Uiso  ? H
   C1019      1.0     0.699071     0.711055     0.117245    Uiso  ? C
   C1020      1.0     0.691255     0.722987     0.103245    Uiso  ? C
   C1021      1.0     0.714808     0.717369     0.127165    Uiso  ? C
   C1022      1.0     0.698502     0.741142     0.100378    Uiso  ? C
   H706       1.0     0.680527     0.715804     0.894045    Uiso  ? H
   C1023      1.0     0.721447     0.735441     0.126054    Uiso  ? C
   H707       1.0     0.721180     0.708820     0.137541    Uiso  ? H
   C1024      1.0     0.713492     0.747584     0.112626    Uiso  ? C
   H708       1.0     0.693846     0.749926     0.889926    Uiso  ? H
   H709       1.0     0.733352     0.738530     0.134281    Uiso  ? H
   C1025      1.0     0.719785     0.767492     0.113102    Uiso  ? C
   H710       1.0     0.709454     0.777728     0.106043    Uiso  ? H
   H711       1.0     0.722400     0.772355     0.128235    Uiso  ? H
   N51        1.0     0.738660     0.768726     0.105065    Uiso  ? N
   C1026      1.0     0.744507     0.759881     0.889418    Uiso  ? C
   C1027      1.0     0.752529     0.779950     0.111520    Uiso  ? C
   C1028      1.0     0.762573     0.766883     0.886289    Uiso  ? C
   H712       1.0     0.737542     0.748166     0.882486    Uiso  ? H
   H713       1.0     0.750848     0.787817     0.123363    Uiso  ? H
   H714       1.0     0.770470     0.764677     0.873783    Uiso  ? H
   N52        1.0     0.767489     0.778990     0.900000    Uiso  ? N
   C1029      1.0     0.617854     0.355420     0.886008    Uiso  ? C
   C1030      1.0     0.627234     0.340283     0.893025    Uiso  ? C
   C1031      1.0     0.622250     0.360605     0.115447    Uiso  ? C
   N53        1.0     0.614754     0.367970     0.100000    Uiso  ? N
   H715       1.0     0.614629     0.357137     0.871141    Uiso  ? H
   H716       1.0     0.631295     0.328645     0.885270    Uiso  ? H
   H717       1.0     0.621487     0.367355     0.128847    Uiso  ? H
   N54        1.0     0.630261     0.343406     0.110735    Uiso  ? N
   C1032      1.0     0.638585     0.329579     0.123645    Uiso  ? C
   H718       1.0     0.634680     0.333517     0.138046    Uiso  ? H
   H719       1.0     0.632345     0.316429     0.118170    Uiso  ? H
   C1033      1.0     0.659604     0.328057     0.123179    Uiso  ? C
   C1034      1.0     0.669898     0.326917     0.106485    Uiso  ? C
   C1035      1.0     0.670204     0.325655     0.140285    Uiso  ? C
   C1036      1.0     0.688282     0.322105     0.105501    Uiso  ? C
   H720       1.0     0.662358     0.328603     0.894045    Uiso  ? H
   C1037      1.0     0.689425     0.322236     0.139709    Uiso  ? C
   H721       1.0     0.664396     0.326407     0.153869    Uiso  ? H
   C1038      1.0     0.698474     0.319142     0.122611    Uiso  ? C
   H722       1.0     0.694159     0.318922     0.892391    Uiso  ? H
   H723       1.0     0.698307     0.321658     0.152242    Uiso  ? H
   C1039      1.0     0.717525     0.311075     0.122637    Uiso  ? C
   C1040      1.0     0.730156     0.315048     0.107354    Uiso  ? C
   C1041      1.0     0.722106     0.296382     0.135360    Uiso  ? C
   C1042      1.0     0.747727     0.305984     0.106604    Uiso  ? C
   H724       1.0     0.727246     0.323384     0.896824    Uiso  ? H
   C1043      1.0     0.739394     0.287889     0.133325    Uiso  ? C
   H725       1.0     0.713439     0.289724     0.146564    Uiso  ? H
   C1044      1.0     0.753278     0.293522     0.120295    Uiso  ? C
   H726       1.0     0.757629     0.309127     0.895950    Uiso  ? H
   H727       1.0     0.741478     0.275768     0.141964    Uiso  ? H
   C1045      1.0     0.772388     0.284314     0.119566    Uiso  ? C
   H728       1.0     0.781648     0.292897     0.110148    Uiso  ? H
   H729       1.0     0.779824     0.285711     0.134248    Uiso  ? H
   N55        1.0     0.772139     0.264524     0.114963    Uiso  ? N
   C1046      1.0     0.757606     0.255555     0.107190    Uiso  ? C
   C1047      1.0     0.786063     0.251682     0.116644    Uiso  ? C
   C1048      1.0     0.763637     0.237132     0.103561    Uiso  ? C
   H730       1.0     0.745008     0.262087     0.101982    Uiso  ? H
   H731       1.0     0.799775     0.253654     0.124452    Uiso  ? H
   H732       1.0     0.755140     0.224903     0.898151    Uiso  ? H
   N56        1.0     0.781302     0.234114     0.109777    Uiso  ? N
   C1049      1.0     0.237788     0.767202     0.875851    Uiso  ? C
   C1050      1.0     0.245100     0.749916     0.880546    Uiso  ? C
   C1051      1.0     0.215391     0.750207     0.887735    Uiso  ? C
   N57        1.0     0.219655     0.767963     0.882231    Uiso  ? N
   H733       1.0     0.245273     0.779454     0.871331    Uiso  ? H
   H734       1.0     0.260492     0.746586     0.880267    Uiso  ? H
   H735       1.0     0.200803     0.745775     0.891533    Uiso  ? H
   N58        1.0     0.230633     0.739168     0.886591    Uiso  ? N
   C1052      1.0     0.231166     0.718866     0.889433    Uiso  ? C
   H736       1.0     0.223071     0.717042     0.102210    Uiso  ? H
   H737       1.0     0.224653     0.711538     0.877427    Uiso  ? H
   C1053      1.0     0.250057     0.711640     0.892984    Uiso  ? C
   C1054      1.0     0.259219     0.702169     0.878135    Uiso  ? C
   C1055      1.0     0.258918     0.713492     0.110600    Uiso  ? C
   C1056      1.0     0.277314     0.695057     0.882158    Uiso  ? C
   H738       1.0     0.253460     0.701814     0.864361    Uiso  ? H
   C1057      1.0     0.275638     0.704934     0.113831    Uiso  ? C
   H739       1.0     0.252568     0.722466     0.120572    Uiso  ? H
   C1058      1.0     0.285123     0.695884     0.100231    Uiso  ? C
   H740       1.0     0.285194     0.688642     0.870950    Uiso  ? H
   H741       1.0     0.281803     0.704760     0.127977    Uiso  ? H
   C1059      1.0     0.303169     0.686721     0.104571    Uiso  ? C
   C1060      1.0     0.319771     0.697775     0.106604    Uiso  ? C
   C1061      1.0     0.304031     0.666906     0.105376    Uiso  ? C
   C1062      1.0     0.337106     0.689083     0.111788    Uiso  ? C
   H742       1.0     0.318941     0.712844     0.103945    Uiso  ? H
   C1063      1.0     0.320514     0.658377     0.110917    Uiso  ? C
   H743       1.0     0.290190     0.659407     0.104380    Uiso  ? H
   C1064      1.0     0.337223     0.668818     0.114991    Uiso  ? C
   H744       1.0     0.348392     0.697739     0.116069    Uiso  ? H
   H745       1.0     0.320542     0.643601     0.113654    Uiso  ? H
   C1065      1.0     0.353014     0.659056     0.124601    Uiso  ? C
   H746       1.0     0.361239     0.669658     0.132055    Uiso  ? H
   H747       1.0     0.347467     0.649531     0.135198    Uiso  ? H
   N59        1.0     0.365335     0.649256     0.111584    Uiso  ? N
   C1066      1.0     0.369004     0.652160     0.893704    Uiso  ? C
   C1067      1.0     0.376399     0.634726     0.116049    Uiso  ? C
   C1068      1.0     0.383943     0.641361     0.888113    Uiso  ? C
   H748       1.0     0.362733     0.664606     0.887349    Uiso  ? H
   H749       1.0     0.374830     0.628490     0.130641    Uiso  ? H
   H750       1.0     0.390885     0.641590     0.874336    Uiso  ? H
   N60        1.0     0.388125     0.630457     0.102055    Uiso  ? N
   C1069      1.0     0.231900     0.234383     0.883722    Uiso  ? C
   C1070      1.0     0.249622     0.242943     0.886685    Uiso  ? C
   C1071      1.0     0.247005     0.219299     0.102863    Uiso  ? C
   N61        1.0     0.230107     0.218702     0.893644    Uiso  ? N
   H751       1.0     0.221812     0.237950     0.874538    Uiso  ? H
   H752       1.0     0.254108     0.256593     0.881061    Uiso  ? H
   H753       1.0     0.252353     0.207288     0.111297    Uiso  ? H
   N62        1.0     0.258593     0.232272     0.898660    Uiso  ? N
   C1072      1.0     0.277680     0.235820     0.106820    Uiso  ? C
   H754       1.0     0.277850     0.229463     0.121138    Uiso  ? H
   H755       1.0     0.286446     0.225543     0.898343    Uiso  ? H
   C1073      1.0     0.284370     0.255572     0.107633    Uiso  ? C
   C1074      1.0     0.295878     0.261489     0.892564    Uiso  ? C
   C1075      1.0     0.278296     0.268149     0.120603    Uiso  ? C
   C1076      1.0     0.302746     0.279336     0.891852    Uiso  ? C
   H756       1.0     0.297707     0.251363     0.882192    Uiso  ? H
   C1077      1.0     0.285794     0.286170     0.121084    Uiso  ? C
   H757       1.0     0.270177     0.262395     0.132707    Uiso  ? H
   C1078      1.0     0.297385     0.291782     0.106395    Uiso  ? C
   H758       1.0     0.312632     0.284418     0.880989    Uiso  ? H
   H759       1.0     0.283082     0.294805     0.132928    Uiso  ? H
   C1079      1.0     0.305477     0.310925     0.106546    Uiso  ? C
   C1080      1.0     0.293926     0.326204     0.102120    Uiso  ? C
   C1081      1.0     0.323085     0.314187     0.113280    Uiso  ? C
   C1082      1.0     0.300704     0.344427     0.104928    Uiso  ? C
   H760       1.0     0.280081     0.322364     0.897473    Uiso  ? H
   C1083      1.0     0.330606     0.331506     0.115773    Uiso  ? C
   H761       1.0     0.332475     0.302984     0.118999    Uiso  ? H
   C1084      1.0     0.320095     0.347278     0.110882    Uiso  ? C
   H762       1.0     0.292095     0.355525     0.899733    Uiso  ? H
   H763       1.0     0.344218     0.331826     0.121017    Uiso  ? H
   C1085      1.0     0.326539     0.367127     0.114096    Uiso  ? C
   H764       1.0     0.315314     0.377690     0.110023    Uiso  ? H
   H765       1.0     0.328043     0.368899     0.130556    Uiso  ? H
   N63        1.0     0.342121     0.371953     0.102091    Uiso  ? N
   C1086      1.0     0.343161     0.370695     0.883663    Uiso  ? C
   C1087      1.0     0.357531     0.381895     0.108051    Uiso  ? C
   C1088      1.0     0.357600     0.382002     0.878027    Uiso  ? C
   H766       1.0     0.333384     0.364409     0.874455    Uiso  ? H
   H767       1.0     0.359527     0.386070     0.122657    Uiso  ? H
   H768       1.0     0.360142     0.386287     0.862901    Uiso  ? H
   N64        1.0     0.367050     0.387567     0.893392    Uiso  ? N
   C1089      1.0     0.638515     0.119353     0.625842    Uiso  ? C
   C1090      1.0     0.652562     0.113360     0.638514    Uiso  ? C
   C1091      1.0     0.639128     0.886041     0.625203    Uiso  ? C
   N65        1.0     0.630191     0.104489     0.618266    Uiso  ? N
   H769       1.0     0.635710     0.134021     0.620944    Uiso  ? H
   H770       1.0     0.661718     0.122447     0.645856    Uiso  ? H
   H771       1.0     0.637801     0.871234     0.620304    Uiso  ? H
   N66        1.0     0.652083     0.890961     0.637965    Uiso  ? N
   C1092      1.0     0.666332     0.878018     0.646568    Uiso  ? C
   H772       1.0     0.660367     0.863435     0.649432    Uiso  ? H
   H773       1.0     0.678923     0.877858     0.637173    Uiso  ? H
   C1093      1.0     0.671518     0.885819     0.665519    Uiso  ? C
   C1094      1.0     0.688173     0.894755     0.668125    Uiso  ? C
   C1095      1.0     0.659218     0.884317     0.680845    Uiso  ? C
   C1096      1.0     0.695015     0.106037     0.685443    Uiso  ? C
   H774       1.0     0.698002     0.894914     0.656477    Uiso  ? H
   C1097      1.0     0.664452     0.892139     0.698160    Uiso  ? C
   H775       1.0     0.645709     0.876496     0.680576    Uiso  ? H
   C1098      1.0     0.682856     0.105098     0.701412    Uiso  ? C
   H776       1.0     0.709396     0.111418     0.685361    Uiso  ? H
   H777       1.0     0.653925     0.890406     0.709387    Uiso  ? H
   C1099      1.0     0.689446     0.110474     0.719725    Uiso  ? C
   C1100      1.0     0.701508     0.126393     0.721498    Uiso  ? C
   C1101      1.0     0.684620     0.895920     0.735942    Uiso  ? C
   C1102      1.0     0.710817     0.130784     0.738471    Uiso  ? C
   H778       1.0     0.705750     0.135172     0.709296    Uiso  ? H
   C1103      1.0     0.692526     0.106250     0.753227    Uiso  ? C
   H779       1.0     0.676070     0.883976     0.734830    Uiso  ? H
   C1104      1.0     0.706423     0.120750     0.754936    Uiso  ? C
   H780       1.0     0.721297     0.141411     0.738887    Uiso  ? H
   H781       1.0     0.689007     0.892605     0.765277    Uiso  ? H
   C1105      1.0     0.715533     0.125162     0.773463    Uiso  ? C
   H782       1.0     0.716278     0.140885     0.776100    Uiso  ? H
   H783       1.0     0.708260     0.118351     0.785514    Uiso  ? H
   N67        1.0     0.735323     0.117895     0.773649    Uiso  ? N
   C1106      1.0     0.740525     0.897535     0.766261    Uiso  ? C
   C1107      1.0     0.748741     0.123141     0.785947    Uiso  ? C
   C1108      1.0     0.757631     0.893116     0.774387    Uiso  ? C
   H784       1.0     0.731027     0.889354     0.757710    Uiso  ? H
   H785       1.0     0.746871     0.134730     0.795551    Uiso  ? H
   H786       1.0     0.765854     0.879868     0.773263    Uiso  ? H
   N68        1.0     0.762994     0.110625     0.786235    Uiso  ? N
   C1109      1.0     0.384533     0.891457     0.648787    Uiso  ? C
   C1110      1.0     0.373166     0.103416     0.661447    Uiso  ? C
   C1111      1.0     0.374050     0.120829     0.636801    Uiso  ? C
   N69        1.0     0.385951     0.106757     0.633571    Uiso  ? N
   H787       1.0     0.392026     0.878639     0.647978    Uiso  ? H
   H788       1.0     0.368524     0.893848     0.675309    Uiso  ? H
   H789       1.0     0.371945     0.132291     0.627607    Uiso  ? H
   N70        1.0     0.366157     0.119274     0.654000    Uiso  ? N
   C1112      1.0     0.352904     0.131763     0.663338    Uiso  ? C
   H790       1.0     0.359982     0.137322     0.675169    Uiso  ? H
   H791       1.0     0.350303     0.144851     0.654323    Uiso  ? H
   C1113      1.0     0.334722     0.122439     0.669676    Uiso  ? C
   C1114      1.0     0.321610     0.117468     0.657029    Uiso  ? C
   C1115      1.0     0.331672     0.119704     0.689272    Uiso  ? C
   C1116      1.0     0.304457     0.111007     0.662939    Uiso  ? C
   H792       1.0     0.323791     0.120838     0.641815    Uiso  ? H
   C1117      1.0     0.314752     0.112561     0.696054    Uiso  ? C
   H793       1.0     0.342549     0.124860     0.698999    Uiso  ? H
   C1118      1.0     0.300715     0.108055     0.682085    Uiso  ? C
   H794       1.0     0.293841     0.108454     0.652398    Uiso  ? H
   H795       1.0     0.311025     0.111418     0.710702    Uiso  ? H
   C1119      1.0     0.281967     0.103095     0.689781    Uiso  ? C
   C1120      1.0     0.264573     0.111016     0.683884    Uiso  ? C
   C1121      1.0     0.280201     0.883340     0.701574    Uiso  ? C
   C1122      1.0     0.247781     0.105190     0.692446    Uiso  ? C
   H796       1.0     0.263307     0.121725     0.673171    Uiso  ? H
   C1123      1.0     0.263524     0.876399     0.708764    Uiso  ? C
   H797       1.0     0.293756     0.875772     0.704557    Uiso  ? H
   C1124      1.0     0.246741     0.885506     0.705014    Uiso  ? C
   H798       1.0     0.235146     0.113122     0.689669    Uiso  ? H
   H799       1.0     0.264087     0.865883     0.718629    Uiso  ? H
   C1125      1.0     0.228422     0.881623     0.715716    Uiso  ? C
   H800       1.0     0.216345     0.885193     0.706516    Uiso  ? H
   H801       1.0     0.227939     0.866171     0.717308    Uiso  ? H
   N71        1.0     0.227590     0.891458     0.733700    Uiso  ? N
   C1126      1.0     0.236846     0.112082     0.737822    Uiso  ? C
   C1127      1.0     0.215913     0.886575     0.747567    Uiso  ? C
   C1128      1.0     0.229837     0.116717     0.755727    Uiso  ? C
   H802       1.0     0.245804     0.120143     0.728499    Uiso  ? H
   H803       1.0     0.207804     0.873393     0.747717    Uiso  ? H
   H804       1.0     0.234375     0.128317     0.763780    Uiso  ? H
   N72        1.0     0.217582     0.102965     0.761576    Uiso  ? N
   C1129      1.0     0.227565     0.878723     0.230034    Uiso  ? C
   C1130      1.0     0.245252     0.876674     0.237808    Uiso  ? C
   C1131      1.0     0.249302     0.889588     0.211188    Uiso  ? C
   N73        1.0     0.230845     0.885631     0.212569    Uiso  ? N
   H805       1.0     0.214025     0.872056     0.235243    Uiso  ? H
   H806       1.0     0.247347     0.871143     0.252011    Uiso  ? H
   H807       1.0     0.255879     0.895822     0.198577    Uiso  ? H
   N74        1.0     0.257932     0.885183     0.226362    Uiso  ? N
   C1132      1.0     0.278365     0.884688     0.228370    Uiso  ? C
   H808       1.0     0.282970     0.870770     0.222121    Uiso  ? H
   H809       1.0     0.285382     0.895819     0.219704    Uiso  ? H
   C1133      1.0     0.285232     0.887073     0.248846    Uiso  ? C
   C1134      1.0     0.275455     0.898035     0.262567    Uiso  ? C
   C1135      1.0     0.303560     0.881660     0.252217    Uiso  ? C
   C1136      1.0     0.284199     0.104724     0.280405    Uiso  ? C
   H810       1.0     0.261565     0.106533     0.260497    Uiso  ? H
   C1137      1.0     0.311597     0.885434     0.269111    Uiso  ? C
   H811       1.0     0.312145     0.875578     0.240510    Uiso  ? H
   C1138      1.0     0.301853     0.894427     0.283740    Uiso  ? C
   H812       1.0     0.276262     0.113653     0.289600    Uiso  ? H
   H813       1.0     0.326673     0.883096     0.271688    Uiso  ? H
   C1139      1.0     0.312292     0.103470     0.302418    Uiso  ? C
   C1140      1.0     0.331378     0.108794     0.304236    Uiso  ? C
   C1141      1.0     0.301302     0.104595     0.318302    Uiso  ? C
   C1142      1.0     0.338395     0.114765     0.321581    Uiso  ? C
   H814       1.0     0.341071     0.106315     0.292735    Uiso  ? H
   C1143      1.0     0.307745     0.112340     0.335537    Uiso  ? C
   H815       1.0     0.286414     0.894983     0.317475    Uiso  ? H
   C1144      1.0     0.326170     0.117291     0.336820    Uiso  ? C
   H816       1.0     0.352584     0.119050     0.323199    Uiso  ? H
   H817       1.0     0.298686     0.112913     0.347355    Uiso  ? H
   C1145      1.0     0.333433     0.124744     0.354763    Uiso  ? C
   H818       1.0     0.341283     0.137920     0.353030    Uiso  ? H
   H819       1.0     0.322467     0.129485     0.364855    Uiso  ? H
   N75        1.0     0.345282     0.111508     0.364383    Uiso  ? N
   C1146      1.0     0.340014     0.889550     0.368688    Uiso  ? C
   C1147      1.0     0.359701     0.116032     0.375335    Uiso  ? C
   C1148      1.0     0.352682     0.883480     0.381434    Uiso  ? C
   H820       1.0     0.327986     0.880827     0.363798    Uiso  ? H
   H821       1.0     0.364294     0.130339     0.377005    Uiso  ? H
   H822       1.0     0.352523     0.869802     0.388762    Uiso  ? H
   N76        1.0     0.364145     0.898001     0.386016    Uiso  ? N
   C1149      1.0     0.770697     0.115356     0.236934    Uiso  ? C
   C1150      1.0     0.758050     0.108121     0.249825    Uiso  ? C
   C1151      1.0     0.775806     0.882514     0.240236    Uiso  ? C
   N77        1.0     0.780944     0.898029     0.230769    Uiso  ? N
   H823       1.0     0.771128     0.129290     0.231141    Uiso  ? H
   H824       1.0     0.746379     0.115035     0.256631    Uiso  ? H
   H825       1.0     0.781601     0.868876     0.239042    Uiso  ? H
   N78        1.0     0.761230     0.886152     0.252680    Uiso  ? N
   C1152      1.0     0.753835     0.873794     0.267805    Uiso  ? C
   H826       1.0     0.752984     0.859146     0.261803    Uiso  ? H
   H827       1.0     0.764384     0.873286     0.278754    Uiso  ? H
   C1153      1.0     0.734282     0.880422     0.274244    Uiso  ? C
   C1154      1.0     0.732946     0.892778     0.289828    Uiso  ? C
   C1155      1.0     0.717995     0.874631     0.265935    Uiso  ? C
   C1156      1.0     0.715978     0.896716     0.297742    Uiso  ? C
   H828       1.0     0.745634     0.897260     0.297087    Uiso  ? H
   C1157      1.0     0.700285     0.880541     0.272816    Uiso  ? C
   H829       1.0     0.718850     0.867747     0.252883    Uiso  ? H
   C1158      1.0     0.699017     0.891538     0.289202    Uiso  ? C
   H830       1.0     0.717876     0.108119     0.311165    Uiso  ? H
   H831       1.0     0.688748     0.875574     0.265108    Uiso  ? H
   C1159      1.0     0.680114     0.895628     0.297279    Uiso  ? C
   C1160      1.0     0.677312     0.116974     0.304242    Uiso  ? C
   C1161      1.0     0.665691     0.882308     0.297068    Uiso  ? C
   C1162      1.0     0.659757     0.121453     0.311911    Uiso  ? C
   H832       1.0     0.687394     0.127916     0.303103    Uiso  ? H
   C1163      1.0     0.647568     0.885855     0.305013    Uiso  ? C
   H833       1.0     0.669761     0.869178     0.291282    Uiso  ? H
   C1164      1.0     0.644921     0.107663     0.311785    Uiso  ? C
   H834       1.0     0.656554     0.135278     0.316849    Uiso  ? H
   H835       1.0     0.636606     0.875012     0.306648    Uiso  ? H
   C1165      1.0     0.625455     0.112454     0.318959    Uiso  ? C
   H836       1.0     0.622422     0.127941     0.318078    Uiso  ? H
   H837       1.0     0.613943     0.104866     0.310963    Uiso  ? H
   N79        1.0     0.624320     0.109154     0.339729    Uiso  ? N
   C1166      1.0     0.637814     0.104412     0.352117    Uiso  ? C
   C1167      1.0     0.608673     0.109296     0.350075    Uiso  ? C
   C1168      1.0     0.629086     0.895201     0.368993    Uiso  ? C
   H838       1.0     0.650811     0.897016     0.348738    Uiso  ? H
   H839       1.0     0.594830     0.113720     0.345026    Uiso  ? H
   H840       1.0     0.635462     0.889550     0.380842    Uiso  ? H
   N80        1.0     0.611534     0.103160     0.367642    Uiso  ? N
   C1169      1.0     0.894385     0.383070     0.642232    Uiso  ? C
   C1170      1.0     0.893369     0.364418     0.648846    Uiso  ? C
   C1171      1.0     0.877210     0.366921     0.623981    Uiso  ? C
   N81        1.0     0.885000     0.383866     0.626101    Uiso  ? N
   H841       1.0     0.107627     0.393678     0.647187    Uiso  ? H
   H842       1.0     0.104791     0.358828     0.660828    Uiso  ? H
   H843       1.0     0.866651     0.364091     0.613179    Uiso  ? H
   N82        1.0     0.881898     0.355010     0.637142    Uiso  ? N
   C1172      1.0     0.878089     0.334697     0.636987    Uiso  ? C
   H844       1.0     0.864018     0.332274     0.631154    Uiso  ? H
   H845       1.0     0.888316     0.326571     0.628280    Uiso  ? H
   C1173      1.0     0.878520     0.326677     0.656288    Uiso  ? C
   C1174      1.0     0.892735     0.315261     0.661812    Uiso  ? C
   C1175      1.0     0.864210     0.329905     0.669274    Uiso  ? C
   C1176      1.0     0.892441     0.305960     0.678325    Uiso  ? C
   H846       1.0     0.106905     0.311817     0.651938    Uiso  ? H
   C1177      1.0     0.863029     0.320900     0.686219    Uiso  ? C
   H847       1.0     0.853651     0.340485     0.665267    Uiso  ? H
   C1178      1.0     0.877326     0.308185     0.691140    Uiso  ? C
   H848       1.0     0.107643     0.296351     0.680904    Uiso  ? H
   H849       1.0     0.852092     0.323417     0.696605    Uiso  ? H
   C1179      1.0     0.877827     0.298826     0.709804    Uiso  ? C
   C1180      1.0     0.891248     0.302969     0.723165    Uiso  ? C
   C1181      1.0     0.862018     0.288827     0.714996    Uiso  ? C
   C1182      1.0     0.890791     0.294272     0.740768    Uiso  ? C
   H850       1.0     0.106359     0.312850     0.718802    Uiso  ? H
   C1183      1.0     0.862029     0.278478     0.732399    Uiso  ? C
   H851       1.0     0.849588     0.287139     0.705662    Uiso  ? H
   C1184      1.0     0.876206     0.280614     0.745178    Uiso  ? C
   H852       1.0     0.105667     0.295974     0.750679    Uiso  ? H
   H853       1.0     0.849525     0.271787     0.736941    Uiso  ? H
   C1185      1.0     0.876754     0.272510     0.764975    Uiso  ? C
   H854       1.0     0.882224     0.282914     0.774701    Uiso  ? H
   H855       1.0     0.862252     0.270161     0.770144    Uiso  ? H
   N83        1.0     0.886030     0.254924     0.766936    Uiso  ? N
   C1186      1.0     0.105802     0.249386     0.759271    Uiso  ? C
   C1187      1.0     0.881471     0.241596     0.779345    Uiso  ? C
   C1188      1.0     0.110224     0.231884     0.765927    Uiso  ? C
   H856       1.0     0.112941     0.257785     0.748551    Uiso  ? H
   H857       1.0     0.870439     0.243314     0.789716    Uiso  ? H
   H858       1.0     0.123228     0.223926     0.764099    Uiso  ? H
   N84        1.0     0.893527     0.227377     0.778795    Uiso  ? N
   C1189      1.0     0.106786     0.646956     0.609926    Uiso  ? C
   C1190      1.0     0.110435     0.657450     0.625606    Uiso  ? C
   C1191      1.0     0.112632     0.628515     0.632798    Uiso  ? C
   N85        1.0     0.107183     0.628767     0.614894    Uiso  ? N
   H859       1.0     0.103962     0.652559     0.595857    Uiso  ? H
   H860       1.0     0.112296     0.672848     0.625814    Uiso  ? H
   H861       1.0     0.115727     0.615528     0.640517    Uiso  ? H
   N86        1.0     0.113851     0.646047     0.640024    Uiso  ? N
   C1192      1.0     0.121053     0.650958     0.657863    Uiso  ? C
   H862       1.0     0.119710     0.640086     0.668037    Uiso  ? H
   H863       1.0     0.135731     0.652542     0.657055    Uiso  ? H
   C1193      1.0     0.112896     0.668951     0.666668    Uiso  ? C
   C1194      1.0     0.123172     0.685495     0.667827    Uiso  ? C
   C1195      1.0     0.890260     0.669611     0.672505    Uiso  ? C
   C1196      1.0     0.115818     0.701254     0.677184    Uiso  ? C
   H864       1.0     0.137917     0.684816     0.664325    Uiso  ? H
   C1197      1.0     0.883240     0.686245     0.681037    Uiso  ? C
   H865       1.0     0.881173     0.657328     0.670776    Uiso  ? H
   C1198      1.0     0.893565     0.702018     0.683752    Uiso  ? C
   H866       1.0     0.124773     0.713446     0.678643    Uiso  ? H
   H867       1.0     0.868381     0.687141     0.685972    Uiso  ? H
   C1199      1.0     0.887389     0.719179     0.694690    Uiso  ? C
   C1200      1.0     0.892358     0.737598     0.689577    Uiso  ? C
   C1201      1.0     0.875678     0.716443     0.709837    Uiso  ? C
   C1202      1.0     0.884920     0.753107     0.698286    Uiso  ? C
   H868       1.0     0.105989     0.740729     0.678769    Uiso  ? H
   C1203      1.0     0.867532     0.731563     0.718393    Uiso  ? C
   H869       1.0     0.872824     0.702089     0.714844    Uiso  ? H
   C1204      1.0     0.873456     0.750263     0.713794    Uiso  ? C
   H870       1.0     0.886362     0.767063     0.691513    Uiso  ? H
   H871       1.0     0.856527     0.729863     0.728970    Uiso  ? H
   C1205      1.0     0.865599     0.765847     0.725133    Uiso  ? C
   H872       1.0     0.865977     0.779492     0.716973    Uiso  ? H
   H873       1.0     0.851195     0.763014     0.729405    Uiso  ? H
   N87        1.0     0.876020     0.768533     0.742599    Uiso  ? N
   C1206      1.0     0.876433     0.755791     0.756435    Uiso  ? C
   C1207      1.0     0.877595     0.785223     0.751449    Uiso  ? C
   C1208      1.0     0.881796     0.764496     0.772688    Uiso  ? C
   H874       1.0     0.872353     0.740921     0.754661    Uiso  ? H
   H875       1.0     0.874505     0.799712     0.745573    Uiso  ? H
   H876       1.0     0.883324     0.757429     0.786364    Uiso  ? H
   N88        1.0     0.882213     0.782671     0.769629    Uiso  ? N
   C1209      1.0     0.109532     0.612287     0.345677    Uiso  ? C
   C1210      1.0     0.118364     0.626526     0.335222    Uiso  ? C
   C1211      1.0     0.124830     0.630818     0.363846    Uiso  ? C
   N89        1.0     0.113662     0.615340     0.363742    Uiso  ? N
   H877       1.0     0.102023     0.600823     0.340238    Uiso  ? H
   H878       1.0     0.119701     0.626832     0.319951    Uiso  ? H
   H879       1.0     0.131757     0.636711     0.376086    Uiso  ? H
   N90        1.0     0.127580     0.638231     0.346587    Uiso  ? N
   C1212      1.0     0.141785     0.652548     0.342941    Uiso  ? C
   H880       1.0     0.146231     0.658815     0.356371    Uiso  ? H
   H881       1.0     0.154531     0.644788     0.337569    Uiso  ? H
   C1213      1.0     0.134635     0.666785     0.329439    Uiso  ? C
   C1214      1.0     0.137278     0.663700     0.310602    Uiso  ? C
   C1215      1.0     0.124333     0.682019     0.335332    Uiso  ? C
   C1216      1.0     0.129602     0.676108     0.296879    Uiso  ? C
   H882       1.0     0.144026     0.651206     0.305312    Uiso  ? H
   C1217      1.0     0.116061     0.694693     0.321775    Uiso  ? C
   H883       1.0     0.121585     0.683737     0.349214    Uiso  ? H
   C1218      1.0     0.118986     0.691837     0.302551    Uiso  ? C
   H884       1.0     0.132019     0.673510     0.282207    Uiso  ? H
   H885       1.0     0.108416     0.706021     0.328241    Uiso  ? H
   C1219      1.0     0.108279     0.703548     0.288603    Uiso  ? C
   C1220      1.0     0.894913     0.694670     0.273705    Uiso  ? C
   C1221      1.0     0.107040     0.722994     0.289997    Uiso  ? C
   C1222      1.0     0.888079     0.705796     0.259264    Uiso  ? C
   H886       1.0     0.893989     0.679829     0.273331    Uiso  ? H
   C1223      1.0     0.894371     0.733709     0.276450    Uiso  ? C
   H887       1.0     0.114479     0.729903     0.300778    Uiso  ? H
   C1224      1.0     0.887400     0.725088     0.260382    Uiso  ? C
   H888       1.0     0.884052     0.699374     0.245795    Uiso  ? H
   H889       1.0     0.891384     0.748662     0.278177    Uiso  ? H
   C1225      1.0     0.876735     0.737417     0.246332    Uiso  ? C
   H890       1.0     0.867753     0.728449     0.236189    Uiso  ? H
   H891       1.0     0.866830     0.746936     0.253524    Uiso  ? H
   N91        1.0     0.889333     0.747340     0.233831    Uiso  ? N
   C1226      1.0     0.111622     0.749537     0.235347    Uiso  ? C
   C1227      1.0     0.883885     0.758774     0.220059    Uiso  ? C
   C1228      1.0     0.117367     0.761559     0.221908    Uiso  ? C
   H892       1.0     0.119921     0.743414     0.246692    Uiso  ? H
   H893       1.0     0.869732     0.762235     0.216936    Uiso  ? H
   H894       1.0     0.131736     0.766944     0.219889    Uiso  ? H
   N92        1.0     0.101931     0.768129     0.212876    Uiso  ? N
   C1229      1.0     0.889284     0.350465     0.384616    Uiso  ? C
   C1230      1.0     0.886127     0.342618     0.368181    Uiso  ? C
   C1231      1.0     0.883351     0.372253     0.365170    Uiso  ? C
   N93        1.0     0.886937     0.369500     0.383069    Uiso  ? N
   H895       1.0     0.893684     0.343249     0.397382    Uiso  ? H
   H896       1.0     0.884805     0.327141     0.365829    Uiso  ? H
   H897       1.0     0.882502     0.385618     0.359131    Uiso  ? H
   N94        1.0     0.883454     0.356185     0.355551    Uiso  ? N
   C1232      1.0     0.876311     0.354033     0.336106    Uiso  ? C
   H898       1.0     0.860435     0.354663     0.337291    Uiso  ? H
   H899       1.0     0.881609     0.366592     0.327265    Uiso  ? H
   C1233      1.0     0.882606     0.335963     0.326161    Uiso  ? C
   C1234      1.0     0.104566     0.334730     0.317660    Uiso  ? C
   C1235      1.0     0.870376     0.321218     0.326479    Uiso  ? C
   C1236      1.0     0.108851     0.318235     0.308866    Uiso  ? C
   H900       1.0     0.112972     0.347292     0.318123    Uiso  ? H
   C1237      1.0     0.877283     0.304283     0.319897    Uiso  ? C
   H901       1.0     0.856182     0.321460     0.333469    Uiso  ? H
   C1238      1.0     0.893683     0.302555     0.310311    Uiso  ? C
   H902       1.0     0.120350     0.318537     0.299415    Uiso  ? H
   H903       1.0     0.867273     0.293204     0.319333    Uiso  ? H
   C1239      1.0     0.898070     0.284787     0.300582    Uiso  ? C
   C1240      1.0     0.120142     0.277742     0.301922    Uiso  ? C
   C1241      1.0     0.884399     0.276019     0.290013    Uiso  ? C
   C1242      1.0     0.124614     0.261072     0.292031    Uiso  ? C
   H904       1.0     0.130626     0.285038     0.310535    Uiso  ? H
   C1243      1.0     0.889556     0.259371     0.280077    Uiso  ? C
   H905       1.0     0.870565     0.282143     0.286901    Uiso  ? H
   C1244      1.0     0.110592     0.251293     0.281817    Uiso  ? C
   H906       1.0     0.138287     0.255068     0.291712    Uiso  ? H
   H907       1.0     0.879165     0.253150     0.270847    Uiso  ? H
   C1245      1.0     0.114388     0.231520     0.274286    Uiso  ? C
   H908       1.0     0.128422     0.227349     0.279707    Uiso  ? H
   H909       1.0     0.103749     0.220915     0.279420    Uiso  ? H
   N95        1.0     0.114581     0.231219     0.254035    Uiso  ? N
   C1246      1.0     0.123707     0.243596     0.242794    Uiso  ? C
   C1247      1.0     0.111290     0.216468     0.243163    Uiso  ? C
   C1248      1.0     0.123182     0.236399     0.224698    Uiso  ? C
   H910       1.0     0.128964     0.257966     0.246402    Uiso  ? H
   H911       1.0     0.104845     0.202899     0.248107    Uiso  ? H
   H912       1.0     0.125735     0.243395     0.210876    Uiso  ? H
   N96        1.0     0.116357     0.218843     0.225251    Uiso  ? N
