
#======================================================================
# CRYSTAL DATA
#----------------------------------------------------------------------
data_VESTA_phase_1

_chemical_name_common                  ' Atoms. Timestep: 0'
_cell_length_a                         68.904579
_cell_length_b                         68.904579
_cell_length_c                         68.904579
_cell_angle_alpha                      90.000000
_cell_angle_beta                       90.000000
_cell_angle_gamma                      90.000000
_cell_volume                           1.000000
_space_group_name_H-M_alt              'P 1'
_space_group_IT_number                 1

loop_
_space_group_symop_operation_xyz
   'x, y, z'

loop_
   _atom_site_label
   _atom_site_occupancy
   _atom_site_fract_x
   _atom_site_fract_y
   _atom_site_fract_z
   _atom_site_adp_type
   _atom_site_U_iso_or_equiv
   _atom_site_type_symbol
   C1         1.0     0.870137     0.229232     0.148232    Uiso  ? C
   C2         1.0     0.855680     0.237947     0.135704    Uiso  ? C
   C3         1.0     0.851019     0.257539     0.137949    Uiso  ? C
   H1         1.0     0.858007     0.267087     0.148376    Uiso  ? H
   C4         1.0     0.835403     0.265150     0.126624    Uiso  ? C
   H2         1.0     0.831144     0.280477     0.128065    Uiso  ? H
   C5         1.0     0.825785     0.253863     0.112899    Uiso  ? C
   H3         1.0     0.812859     0.260031     0.106011    Uiso  ? H
   C6         1.0     0.831213     0.234338     0.110281    Uiso  ? C
   C7         1.0     0.845236     0.226511     0.122508    Uiso  ? C
   H4         1.0     0.848629     0.211231     0.122195    Uiso  ? H
   C8         1.0     0.820850     0.220013     0.896864    Uiso  ? C
   C9         1.0     0.867980     0.198769     0.188961    Uiso  ? C
   C10        1.0     0.851910     0.189897     0.200626    Uiso  ? C
   C11        1.0     0.845215     0.198488     0.217719    Uiso  ? C
   H5         1.0     0.850910     0.210850     0.222740    Uiso  ? H
   C12        1.0     0.830849     0.189730     0.229514    Uiso  ? C
   H6         1.0     0.827555     0.195751     0.242989    Uiso  ? H
   C13        1.0     0.822297     0.172786     0.223989    Uiso  ? C
   H7         1.0     0.810168     0.167568     0.232828    Uiso  ? H
   C14        1.0     0.828707     0.163974     0.206262    Uiso  ? C
   C15        1.0     0.844301     0.172250     0.195362    Uiso  ? C
   H8         1.0     0.850493     0.163986     0.181924    Uiso  ? H
   C16        1.0     0.818107     0.146950     0.198832    Uiso  ? C
   C17        1.0     0.120324     0.196597     0.190926    Uiso  ? C
   C18        1.0     0.135423     0.186464     0.203295    Uiso  ? C
   C19        1.0     0.139616     0.194285     0.221900    Uiso  ? C
   H9         1.0     0.133331     0.207842     0.226330    Uiso  ? H
   C20        1.0     0.151968     0.184159     0.234326    Uiso  ? C
   H10        1.0     0.154547     0.188939     0.248483    Uiso  ? H
   C21        1.0     0.161666     0.167967     0.228134    Uiso  ? C
   H11        1.0     0.171865     0.160536     0.238474    Uiso  ? H
   C22        1.0     0.156755     0.159471     0.210313    Uiso  ? C
   C23        1.0     0.143023     0.168691     0.198010    Uiso  ? C
   H12        1.0     0.140422     0.162815     0.183858    Uiso  ? H
   C24        1.0     0.169066     0.144488     0.203316    Uiso  ? C
   C25        1.0     0.127163     0.229068     0.153003    Uiso  ? C
   C26        1.0     0.144725     0.236167     0.143021    Uiso  ? C
   C27        1.0     0.152859     0.254455     0.146689    Uiso  ? C
   H13        1.0     0.148601     0.263283     0.158730    Uiso  ? H
   C28        1.0     0.167691     0.262739     0.134820    Uiso  ? C
   H14        1.0     0.173148     0.277185     0.138061    Uiso  ? H
   C29        1.0     0.176188     0.251419     0.120927    Uiso  ? C
   H15        1.0     0.187640     0.257281     0.111882    Uiso  ? H
   C30        1.0     0.169166     0.232275     0.117307    Uiso  ? C
   C31        1.0     0.153582     0.225034     0.128611    Uiso  ? C
   H16        1.0     0.147789     0.210428     0.124429    Uiso  ? H
   C32        1.0     0.179493     0.219116     0.103100    Uiso  ? C
   C33        1.0     0.791004     0.172651     0.854507    Uiso  ? C
   C34        1.0     0.780890     0.158710     0.841844    Uiso  ? C
   C35        1.0     0.762611     0.163179     0.834089    Uiso  ? C
   H17        1.0     0.755101     0.175751     0.838329    Uiso  ? H
   C36        1.0     0.754260     0.150564     0.819969    Uiso  ? C
   H18        1.0     0.739171     0.153361     0.817156    Uiso  ? H
   C37        1.0     0.764228     0.134093     0.814176    Uiso  ? C
   H19        1.0     0.756204     0.124061     0.805308    Uiso  ? H
   C38        1.0     0.782823     0.130063     0.822181    Uiso  ? C
   C39        1.0     0.791127     0.142620     0.835644    Uiso  ? C
   H20        1.0     0.805523     0.137912     0.842499    Uiso  ? H
   C40        1.0     0.793476     0.112345     0.815389    Uiso  ? C
   C41        1.0     0.786641     0.181592     0.101978    Uiso  ? C
   C42        1.0     0.777584     0.174225     0.119684    Uiso  ? C
   C43        1.0     0.760845     0.183461     0.126166    Uiso  ? C
   H21        1.0     0.752998     0.193000     0.117007    Uiso  ? H
   C44        1.0     0.751419     0.177276     0.142246    Uiso  ? C
   H22        1.0     0.738981     0.185147     0.147255    Uiso  ? H
   C45        1.0     0.758794     0.161916     0.153123    Uiso  ? C
   H23        1.0     0.749573     0.156009     0.164702    Uiso  ? H
   C46        1.0     0.777456     0.154466     0.148841    Uiso  ? C
   C47        1.0     0.786821     0.160487     0.131857    Uiso  ? C
   H24        1.0     0.800678     0.154080     0.128470    Uiso  ? H
   C48        1.0     0.785723     0.139526     0.161829    Uiso  ? C
   C49        1.0     0.823806     0.206669     0.848316    Uiso  ? C
   C50        1.0     0.834898     0.215253     0.832264    Uiso  ? C
   C51        1.0     0.830090     0.233130     0.823285    Uiso  ? C
   H25        1.0     0.819916     0.243182     0.828810    Uiso  ? H
   C52        1.0     0.840578     0.240404     0.806945    Uiso  ? C
   H26        1.0     0.837297     0.253717     0.800668    Uiso  ? H
   C53        1.0     0.855287     0.229520     0.798769    Uiso  ? C
   H27        1.0     0.864668     0.235726     0.787589    Uiso  ? H
   C54        1.0     0.861153     0.212754     0.808217    Uiso  ? C
   C55        1.0     0.851395     0.205524     0.825414    Uiso  ? C
   H28        1.0     0.855669     0.192814     0.832058    Uiso  ? H
   C56        1.0     0.877542     0.201433     0.800079    Uiso  ? C
   C57        1.0     0.781672     0.886486     0.171953    Uiso  ? C
   C58        1.0     0.773136     0.866878     0.166943    Uiso  ? C
   C59        1.0     0.757765     0.858874     0.178667    Uiso  ? C
   H29        1.0     0.754082     0.866685     0.192114    Uiso  ? H
   C60        1.0     0.750101     0.840505     0.173433    Uiso  ? C
   H30        1.0     0.738798     0.833817     0.182928    Uiso  ? H
   C61        1.0     0.757414     0.829729     0.157515    Uiso  ? C
   H31        1.0     0.751677     0.815298     0.155149    Uiso  ? H
   C62        1.0     0.772671     0.838044     0.146563    Uiso  ? C
   C63        1.0     0.780561     0.855282     0.151387    Uiso  ? C
   H32        1.0     0.792902     0.861704     0.144365    Uiso  ? H
   C64        1.0     0.781912     0.826651     0.131838    Uiso  ? C
   C65        1.0     0.819006     0.894150     0.208623    Uiso  ? C
   C66        1.0     0.828351     0.878647     0.220376    Uiso  ? C
   C67        1.0     0.820744     0.874381     0.239028    Uiso  ? C
   H33        1.0     0.809808     0.883567     0.244990    Uiso  ? H
   C68        1.0     0.829617     0.859871     0.250583    Uiso  ? C
   H34        1.0     0.823614     0.858206     0.265809    Uiso  ? H
   C69        1.0     0.843742     0.848337     0.243903    Uiso  ? C
   H35        1.0     0.849955     0.839017     0.255291    Uiso  ? H
   C70        1.0     0.851258     0.851275     0.224887    Uiso  ? C
   C71        1.0     0.843076     0.866518     0.213493    Uiso  ? C
   H36        1.0     0.848555     0.869017     0.198369    Uiso  ? H
   C72        1.0     0.867256     0.840469     0.217777    Uiso  ? C
   C73        1.0     0.879184     0.159310     0.771110    Uiso  ? C
   C74        1.0     0.863626     0.146719     0.762832    Uiso  ? C
   C75        1.0     0.861475     0.147314     0.742276    Uiso  ? C
   H37        1.0     0.869729     0.157253     0.733059    Uiso  ? H
   C76        1.0     0.848009     0.135306     0.733661    Uiso  ? C
   H38        1.0     0.845684     0.136289     0.718297    Uiso  ? H
   C77        1.0     0.837383     0.121979     0.745478    Uiso  ? C
   H39        1.0     0.826063     0.114853     0.737945    Uiso  ? H
   C78        1.0     0.839615     0.121617     0.765822    Uiso  ? C
   C79        1.0     0.853000     0.134039     0.774315    Uiso  ? C
   H40        1.0     0.856637     0.131773     0.789438    Uiso  ? H
   C80        1.0     0.829390     0.106523     0.777187    Uiso  ? C
   C81        1.0     0.134376     0.199225     0.800799    Uiso  ? C
   C82        1.0     0.150930     0.209385     0.808532    Uiso  ? C
   C83        1.0     0.161521     0.221620     0.796396    Uiso  ? C
   H41        1.0     0.157925     0.222878     0.780580    Uiso  ? H
   C84        1.0     0.178189     0.230613     0.802382    Uiso  ? C
   H42        1.0     0.185990     0.239667     0.792750    Uiso  ? H
   C85        1.0     0.185230     0.227576     0.821011    Uiso  ? C
   H43        1.0     0.199657     0.233096     0.824700    Uiso  ? H
   C86        1.0     0.175474     0.214405     0.833878    Uiso  ? C
   C87        1.0     0.158187     0.205205     0.827424    Uiso  ? C
   H44        1.0     0.150306     0.194132     0.835843    Uiso  ? H
   C88        1.0     0.182382     0.208058     0.852368    Uiso  ? C
   C89        1.0     0.214514     0.184273     0.113101    Uiso  ? C
   C90        1.0     0.224209     0.175402     0.130117    Uiso  ? C
   C91        1.0     0.242371     0.183550     0.136920    Uiso  ? C
   H45        1.0     0.250162     0.193590     0.127245    Uiso  ? H
   C92        1.0     0.249686     0.177055     0.154649    Uiso  ? C
   H46        1.0     0.264621     0.180817     0.159019    Uiso  ? H
   C93        1.0     0.239309     0.163012     0.165334    Uiso  ? C
   H47        1.0     0.245709     0.159333     0.179265    Uiso  ? H
   C94        1.0     0.221362     0.155972     0.159012    Uiso  ? C
   C95        1.0     0.213701     0.161499     0.141332    Uiso  ? C
   H48        1.0     0.198449     0.157833     0.136018    Uiso  ? H
   C96        1.0     0.210513     0.142008     0.171141    Uiso  ? C
   O1         1.0     0.877931     0.212940     0.142692    Uiso  ? O
   O2         1.0     0.876024     0.238114     0.164197    Uiso  ? O
   O3         1.0     0.874624     0.190958     0.173124    Uiso  ? O
   O4         1.0     0.876127     0.215197     0.194991    Uiso  ? O
   O5         1.0     0.114265     0.188197     0.175146    Uiso  ? O
   O6         1.0     0.114123     0.214077     0.195449    Uiso  ? O
   O7         1.0     0.119740     0.212114     0.147926    Uiso  ? O
   O8         1.0     0.119585     0.238154     0.167989    Uiso  ? O
   O9         1.0     0.805826     0.166722     0.864651    Uiso  ? O
   O10        1.0     0.783659     0.189691     0.857237    Uiso  ? O
   O11        1.0     0.804005     0.174521     0.899184    Uiso  ? O
   O12        1.0     0.780174     0.196007     0.893818    Uiso  ? O
   O13        1.0     0.829247     0.203326     0.893362    Uiso  ? O
   O14        1.0     0.804227     0.225302     0.889060    Uiso  ? O
   O15        1.0     0.831229     0.191851     0.857774    Uiso  ? O
   O16        1.0     0.808115     0.215493     0.853843    Uiso  ? O
   O17        1.0     0.798001     0.891982     0.164621    Uiso  ? O
   O18        1.0     0.775027     0.896230     0.186810    Uiso  ? O
   O19        1.0     0.826589     0.102108     0.191196    Uiso  ? O
   O20        1.0     0.802877     0.104868     0.214243    Uiso  ? O
   O21        1.0     0.824188     0.138693     0.182918    Uiso  ? O
   O22        1.0     0.801913     0.140655     0.207242    Uiso  ? O
   O23        1.0     0.801534     0.130310     0.156122    Uiso  ? O
   O24        1.0     0.778236     0.136334     0.179499    Uiso  ? O
   O25        1.0     0.886143     0.156298     0.788698    Uiso  ? O
   O26        1.0     0.885979     0.173606     0.760572    Uiso  ? O
   O27        1.0     0.883644     0.186856     0.810215    Uiso  ? O
   O28        1.0     0.885674     0.205908     0.783632    Uiso  ? O
   O29        1.0     0.124927     0.186420     0.811476    Uiso  ? O
   O30        1.0     0.127715     0.203296     0.783397    Uiso  ? O
   O31        1.0     0.126332     0.154851     0.793083    Uiso  ? O
   O32        1.0     0.127194     0.173603     0.765286    Uiso  ? O
   O33        1.0     0.173810     0.194826     0.862978    Uiso  ? O
   O34        1.0     0.199821     0.213559     0.857020    Uiso  ? O
   O35        1.0     0.172560     0.200625     0.899794    Uiso  ? O
   O36        1.0     0.195919     0.223288     0.895463    Uiso  ? O
   O37        1.0     0.198928     0.175716     0.105942    Uiso  ? O
   O38        1.0     0.222754     0.198810     0.103457    Uiso  ? O
   O39        1.0     0.197877     0.166546     0.868816    Uiso  ? O
   O40        1.0     0.223804     0.186871     0.871176    Uiso  ? O
   O41        1.0     0.836872     0.861615     0.805186    Uiso  ? O
   O42        1.0     0.815329     0.857150     0.780850    Uiso  ? O
   O43        1.0     0.808403     0.865942     0.825998    Uiso  ? O
   O44        1.0     0.785322     0.861293     0.802477    Uiso  ? O
   O45        1.0     0.810392     0.107140     0.823207    Uiso  ? O
   O46        1.0     0.787123     0.102603     0.799838    Uiso  ? O
   O47        1.0     0.836198     0.103201     0.794945    Uiso  ? O
   O48        1.0     0.813280     0.893401     0.770428    Uiso  ? O
   O49        1.0     0.894787     0.179959     0.139511    Uiso  ? O
   O50        1.0     0.839573     0.167144     0.887581    Uiso  ? O
   O51        1.0     0.834328     0.110542     0.155319    Uiso  ? O
   O52        1.0     0.104665     0.155966     0.826199    Uiso  ? O
   O53        1.0     0.164794     0.164879     0.888014    Uiso  ? O
   O54        1.0     0.843247     0.887413     0.834589    Uiso  ? O
   Zn1        1.0     0.894486     0.199490     0.157354    Uiso  ? Zn
   Zn2        1.0     0.894443     0.229517     0.181859    Uiso  ? Zn
   Zn3        1.0     0.820257     0.182070     0.879991    Uiso  ? Zn
   Zn4        1.0     0.792171     0.208796     0.873755    Uiso  ? Zn
   Zn5        1.0     0.814493     0.115615     0.172560    Uiso  ? Zn
   Zn6        1.0     0.787162     0.121165     0.198794    Uiso  ? Zn
   Zn7        1.0     0.106207     0.169690     0.802663    Uiso  ? Zn
   Zn8        1.0     0.107479     0.191802     0.770135    Uiso  ? Zn
   Zn9        1.0     0.183623     0.181602     0.885007    Uiso  ? Zn
   Zn10       1.0     0.212700     0.207604     0.880924    Uiso  ? Zn
   Zn11       1.0     0.825070     0.883503     0.814199    Uiso  ? Zn
   Zn12       1.0     0.798437     0.877872     0.786161    Uiso  ? Zn
   C97        1.0     0.132282     0.770083     0.844570    Uiso  ? C
   C98        1.0     0.147393     0.761938     0.856213    Uiso  ? C
   C99        1.0     0.153861     0.742596     0.854553    Uiso  ? C
   H49        1.0     0.146463     0.732393     0.845027    Uiso  ? H
   C100       1.0     0.169410     0.736304     0.866037    Uiso  ? C
   H50        1.0     0.174646     0.721982     0.865030    Uiso  ? H
   C101       1.0     0.179779     0.748253     0.877852    Uiso  ? C
   H51        1.0     0.191881     0.743376     0.887110    Uiso  ? H
   C102       1.0     0.173378     0.767224     0.879565    Uiso  ? C
   C103       1.0     0.158217     0.774088     0.868475    Uiso  ? C
   H52        1.0     0.155467     0.789775     0.869863    Uiso  ? H
   C104       1.0     0.183904     0.780854     0.893931    Uiso  ? C
   C105       1.0     0.134018     0.799309     0.803440    Uiso  ? C
   C106       1.0     0.151209     0.806661     0.792649    Uiso  ? C
   C107       1.0     0.159265     0.796946     0.775730    Uiso  ? C
   H53        1.0     0.151990     0.783528     0.770695    Uiso  ? H
   C108       1.0     0.175054     0.805153     0.766899    Uiso  ? C
   H54        1.0     0.180088     0.798976     0.752907    Uiso  ? H
   C109       1.0     0.182964     0.822256     0.773408    Uiso  ? C
   H55        1.0     0.193575     0.828822     0.763825    Uiso  ? H
   C110       1.0     0.174281     0.832263     0.788919    Uiso  ? C
   C111       1.0     0.158602     0.824899     0.798605    Uiso  ? C
   H56        1.0     0.151971     0.832992     0.810473    Uiso  ? H
   C112       1.0     0.182252     0.851175     0.795303    Uiso  ? C
   C113       1.0     0.878325     0.798545     0.803005    Uiso  ? C
   C114       1.0     0.863977     0.807414     0.790199    Uiso  ? C
   C115       1.0     0.860152     0.799077     0.771977    Uiso  ? C
   H57        1.0     0.864678     0.783961     0.768058    Uiso  ? H
   C116       1.0     0.846812     0.808646     0.759953    Uiso  ? C
   H58        1.0     0.842728     0.801880     0.745549    Uiso  ? H
   C117       1.0     0.838774     0.826332     0.765367    Uiso  ? C
   H59        1.0     0.828309     0.833378     0.756425    Uiso  ? H
   C118       1.0     0.841358     0.833105     0.784350    Uiso  ? C
   C119       1.0     0.853756     0.823098     0.797188    Uiso  ? C
   H60        1.0     0.854241     0.828561     0.811523    Uiso  ? H
   C120       1.0     0.830569     0.851346     0.790833    Uiso  ? C
   C121       1.0     0.877542     0.770660     0.845204    Uiso  ? C
   C122       1.0     0.859538     0.763022     0.854977    Uiso  ? C
   C123       1.0     0.854556     0.743411     0.853495    Uiso  ? C
   H61        1.0     0.863706     0.731846     0.845544    Uiso  ? H
   C124       1.0     0.836963     0.737206     0.863010    Uiso  ? C
   H62        1.0     0.832888     0.722331     0.861271    Uiso  ? H
   C125       1.0     0.825134     0.750559     0.872783    Uiso  ? C
   H63        1.0     0.811881     0.745473     0.879287    Uiso  ? H
   C126       1.0     0.831620     0.770074     0.875774    Uiso  ? C
   C127       1.0     0.848716     0.775665     0.866124    Uiso  ? C
   H64        1.0     0.855558     0.789073     0.869186    Uiso  ? H
   C128       1.0     0.820704     0.784095     0.888547    Uiso  ? C
   C129       1.0     0.215913     0.826783     0.137402    Uiso  ? C
   C130       1.0     0.225079     0.840476     0.150926    Uiso  ? C
   C131       1.0     0.243672     0.837401     0.158863    Uiso  ? C
   H65        1.0     0.250956     0.823420     0.157241    Uiso  ? H
   C132       1.0     0.251091     0.850771     0.172756    Uiso  ? C
   H66        1.0     0.264782     0.847790     0.179225    Uiso  ? H
   C133       1.0     0.240438     0.866232     0.178905    Uiso  ? C
   H67        1.0     0.247538     0.875391     0.189083    Uiso  ? H
   C134       1.0     0.221909     0.869912     0.171804    Uiso  ? C
   C135       1.0     0.214898     0.857997     0.156412    Uiso  ? C
   H68        1.0     0.200740     0.860549     0.150530    Uiso  ? H
   C136       1.0     0.209941     0.886727     0.178884    Uiso  ? C
   C137       1.0     0.218455     0.817142     0.889092    Uiso  ? C
   C138       1.0     0.229888     0.825883     0.872462    Uiso  ? C
   C139       1.0     0.248815     0.819453     0.868078    Uiso  ? C
   H69        1.0     0.255945     0.810423     0.879483    Uiso  ? H
   C140       1.0     0.257189     0.824684     0.850748    Uiso  ? C
   H70        1.0     0.271529     0.818444     0.846159    Uiso  ? H
   C141       1.0     0.246573     0.836914     0.837756    Uiso  ? C
   H71        1.0     0.253854     0.840294     0.823520    Uiso  ? H
   C142       1.0     0.228746     0.845319     0.843105    Uiso  ? C
   C143       1.0     0.220997     0.839801     0.860720    Uiso  ? C
   H72        1.0     0.207232     0.845256     0.864936    Uiso  ? H
   C144       1.0     0.218856     0.859245     0.830334    Uiso  ? C
   C145       1.0     0.175145     0.790971     0.139883    Uiso  ? C
   C146       1.0     0.162497     0.782526     0.155312    Uiso  ? C
   C147       1.0     0.165541     0.764056     0.161839    Uiso  ? C
   H73        1.0     0.175993     0.754376     0.155681    Uiso  ? H
   C148       1.0     0.153890     0.756365     0.176895    Uiso  ? C
   H74        1.0     0.156677     0.741844     0.182289    Uiso  ? H
   C149       1.0     0.140035     0.768690     0.185848    Uiso  ? C
   H75        1.0     0.131899     0.762655     0.197507    Uiso  ? H
   C150       1.0     0.137152     0.787411     0.180026    Uiso  ? C
   C151       1.0     0.148714     0.794279     0.163982    Uiso  ? C
   H76        1.0     0.147290     0.809175     0.158581    Uiso  ? H
   C152       1.0     0.121905     0.798622     0.189438    Uiso  ? C
   C153       1.0     0.218722     0.112917     0.820580    Uiso  ? C
   C154       1.0     0.229197     0.129647     0.829127    Uiso  ? C
   C155       1.0     0.247538     0.136117     0.823102    Uiso  ? C
   H77        1.0     0.255236     0.128466     0.810211    Uiso  ? H
   C156       1.0     0.256751     0.151702     0.831649    Uiso  ? C
   H78        1.0     0.271301     0.155930     0.826458    Uiso  ? H
   C157       1.0     0.247603     0.161408     0.846715    Uiso  ? C
   H79        1.0     0.253925     0.174231     0.854546    Uiso  ? H
   C158       1.0     0.228513     0.156883     0.852677    Uiso  ? C
   C159       1.0     0.219859     0.139426     0.844110    Uiso  ? C
   H80        1.0     0.205294     0.135951     0.848285    Uiso  ? H
   C160       1.0     0.216434     0.170561     0.865255    Uiso  ? C
   C161       1.0     0.181762     0.105157     0.785341    Uiso  ? C
   C162       1.0     0.172049     0.119118     0.772567    Uiso  ? C
   C163       1.0     0.179687     0.122773     0.754239    Uiso  ? C
   H81        1.0     0.191909     0.113422     0.748241    Uiso  ? H
   C164       1.0     0.172194     0.138719     0.743015    Uiso  ? C
   H82        1.0     0.177537     0.140278     0.729203    Uiso  ? H
   C165       1.0     0.157904     0.151254     0.750323    Uiso  ? C
   H83        1.0     0.152339     0.161420     0.739423    Uiso  ? H
   C166       1.0     0.149308     0.146999     0.768128    Uiso  ? C
   C167       1.0     0.156531     0.130563     0.778534    Uiso  ? C
   H84        1.0     0.150008     0.127387     0.792601    Uiso  ? H
   C168       1.0     0.133890     0.159047     0.776269    Uiso  ? C
   C169       1.0     0.120605     0.842152     0.218572    Uiso  ? C
   C170       1.0     0.134424     0.855135     0.228316    Uiso  ? C
   C171       1.0     0.135285     0.856809     0.248255    Uiso  ? C
   H85        1.0     0.123759     0.849826     0.255927    Uiso  ? H
   C172       1.0     0.147571     0.870210     0.256872    Uiso  ? C
   H86        1.0     0.147358     0.873738     0.272567    Uiso  ? H
   C173       1.0     0.159764     0.881543     0.244901    Uiso  ? C
   H87        1.0     0.169512     0.891795     0.251885    Uiso  ? H
   C174       1.0     0.160242     0.879411     0.224794    Uiso  ? C
   C175       1.0     0.146680     0.866269     0.216745    Uiso  ? C
   H88        1.0     0.145778     0.864865     0.201072    Uiso  ? H
   C176       1.0     0.171922     0.892484     0.212435    Uiso  ? C
   C177       1.0     0.867665     0.799654     0.190556    Uiso  ? C
   C178       1.0     0.852235     0.787812     0.180694    Uiso  ? C
   C179       1.0     0.847212     0.769543     0.188170    Uiso  ? C
   H89        1.0     0.855532     0.763567     0.199408    Uiso  ? H
   C180       1.0     0.830737     0.760176     0.181005    Uiso  ? C
   H90        1.0     0.826003     0.746714     0.187733    Uiso  ? H
   C181       1.0     0.820575     0.767124     0.165203    Uiso  ? C
   H91        1.0     0.808419     0.758763     0.159688    Uiso  ? H
   C182       1.0     0.826230     0.784980     0.156924    Uiso  ? C
   C183       1.0     0.842244     0.795627     0.165521    Uiso  ? C
   H92        1.0     0.847491     0.809788     0.158875    Uiso  ? H
   C184       1.0     0.817335     0.792018     0.138741    Uiso  ? C
   C185       1.0     0.783742     0.821828     0.883037    Uiso  ? C
   C186       1.0     0.775661     0.830320     0.864970    Uiso  ? C
   C187       1.0     0.756189     0.826528     0.859068    Uiso  ? C
   H93        1.0     0.747540     0.816798     0.867545    Uiso  ? H
   C188       1.0     0.749013     0.832758     0.841986    Uiso  ? C
   H94        1.0     0.733513     0.829098     0.838522    Uiso  ? H
   C189       1.0     0.760936     0.842476     0.829050    Uiso  ? C
   H95        1.0     0.753996     0.846055     0.815445    Uiso  ? H
   C190       1.0     0.780008     0.848192     0.833974    Uiso  ? C
   C191       1.0     0.786888     0.842675     0.852783    Uiso  ? C
   H96        1.0     0.801035     0.847893     0.857768    Uiso  ? H
   C192       1.0     0.791888     0.859135     0.819957    Uiso  ? C
   O55        1.0     0.124465     0.786298     0.849131    Uiso  ? O
   O56        1.0     0.125982     0.761246     0.829128    Uiso  ? O
   O57        1.0     0.127007     0.809041     0.819048    Uiso  ? O
   O58        1.0     0.126794     0.781975     0.799161    Uiso  ? O
   O59        1.0     0.883863     0.808334     0.818303    Uiso  ? O
   O60        1.0     0.886652     0.781753     0.798631    Uiso  ? O
   O61        1.0     0.883395     0.788494     0.848767    Uiso  ? O
   O62        1.0     0.884757     0.761819     0.830000    Uiso  ? O
   O63        1.0     0.199131     0.831519     0.129443    Uiso  ? O
   O64        1.0     0.222199     0.808777     0.135240    Uiso  ? O
   O65        1.0     0.201578     0.824568     0.893976    Uiso  ? O
   O66        1.0     0.225576     0.802249     0.898481    Uiso  ? O
   O67        1.0     0.177264     0.798103     0.895806    Uiso  ? O
   O68        1.0     0.198984     0.775281     0.102716    Uiso  ? O
   O69        1.0     0.170531     0.807118     0.130692    Uiso  ? O
   O70        1.0     0.193018     0.784123     0.138033    Uiso  ? O
   O71        1.0     0.201866     0.108103     0.827971    Uiso  ? O
   O72        1.0     0.226171     0.102858     0.807215    Uiso  ? O
   O73        1.0     0.173834     0.897675     0.802332    Uiso  ? O
   O74        1.0     0.198390     0.895407     0.780761    Uiso  ? O
   O75        1.0     0.173012     0.861904     0.808437    Uiso  ? O
   O76        1.0     0.199313     0.856306     0.789240    Uiso  ? O
   O77        1.0     0.201160     0.865603     0.835318    Uiso  ? O
   O78        1.0     0.226772     0.864783     0.814345    Uiso  ? O
   O79        1.0     0.114408     0.844712     0.201740    Uiso  ? O
   O80        1.0     0.114375     0.827382     0.228062    Uiso  ? O
   O81        1.0     0.116562     0.814533     0.180930    Uiso  ? O
   O82        1.0     0.114945     0.794834     0.206833    Uiso  ? O
   O83        1.0     0.876064     0.813573     0.180902    Uiso  ? O
   O84        1.0     0.874052     0.795464     0.207497    Uiso  ? O
   O85        1.0     0.875280     0.846237     0.201871    Uiso  ? O
   O86        1.0     0.872289     0.824194     0.225767    Uiso  ? O
   O87        1.0     0.825279     0.806585     0.130183    Uiso  ? O
   O88        1.0     0.801302     0.784020     0.132105    Uiso  ? O
   O89        1.0     0.827959     0.801127     0.893838    Uiso  ? O
   O90        1.0     0.802675     0.779243     0.893392    Uiso  ? O
   O91        1.0     0.801160     0.826832     0.888448    Uiso  ? O
   O92        1.0     0.775165     0.807970     0.893067    Uiso  ? O
   O93        1.0     0.798406     0.832740     0.123573    Uiso  ? O
   O94        1.0     0.775169     0.808861     0.128198    Uiso  ? O
   O95        1.0     0.164576     0.135990     0.186782    Uiso  ? O
   O96        1.0     0.184745     0.138603     0.212646    Uiso  ? O
   O97        1.0     0.194665     0.134341     0.164371    Uiso  ? O
   O98        1.0     0.215663     0.137762     0.188969    Uiso  ? O
   O99        1.0     0.193582     0.891681     0.171817    Uiso  ? O
   O100       1.0     0.215345     0.896037     0.194123    Uiso  ? O
   O101       1.0     0.166865     0.897546     0.194942    Uiso  ? O
   O102       1.0     0.188906     0.102752     0.219692    Uiso  ? O
   O103       1.0     0.108113     0.824214     0.850466    Uiso  ? O
   O104       1.0     0.166649     0.836785     0.107535    Uiso  ? O
   O105       1.0     0.167510     0.885955     0.842788    Uiso  ? O
   O106       1.0     0.894444     0.844941     0.164976    Uiso  ? O
   O107       1.0     0.833775     0.836232     0.108373    Uiso  ? O
   O108       1.0     0.162128     0.111445     0.156049    Uiso  ? O
   Zn13       1.0     0.106143     0.801281     0.835842    Uiso  ? Zn
   Zn14       1.0     0.107798     0.769070     0.812865    Uiso  ? Zn
   Zn15       1.0     0.184168     0.817846     0.112371    Uiso  ? Zn
   Zn16       1.0     0.212259     0.790504     0.118996    Uiso  ? Zn
   Zn17       1.0     0.185043     0.882775     0.822020    Uiso  ? Zn
   Zn18       1.0     0.213303     0.878385     0.795039    Uiso  ? Zn
   Zn19       1.0     0.894248     0.831350     0.187800    Uiso  ? Zn
   Zn20       1.0     0.893269     0.809080     0.219840    Uiso  ? Zn
   Zn21       1.0     0.815034     0.818418     0.108881    Uiso  ? Zn
   Zn22       1.0     0.786483     0.792543     0.111246    Uiso  ? Zn
   Zn23       1.0     0.178918     0.116557     0.176714    Uiso  ? Zn
   Zn24       1.0     0.203419     0.120620     0.206600    Uiso  ? Zn
   H97        1.0     0.152909     0.832633     0.110855    Uiso  ? H
   H98        1.0     0.165152     0.838602     0.894244    Uiso  ? H
   H99        1.0     0.845199     0.162024     0.875380    Uiso  ? H
   H100       1.0     0.851136     0.173057     0.894214    Uiso  ? H
   H101       1.0     0.837430     0.893288     0.845401    Uiso  ? H
   H102       1.0     0.854534     0.895800     0.830517    Uiso  ? H
   H103       1.0     0.105974     0.142254     0.821612    Uiso  ? H
   H104       1.0     0.888012     0.159033     0.830334    Uiso  ? H
   H105       1.0     0.169283     0.103931     0.145850    Uiso  ? H
   H106       1.0     0.158281     0.122775     0.149047    Uiso  ? H
   H107       1.0     0.102830     0.186339     0.127150    Uiso  ? H
   H108       1.0     0.110805     0.173280     0.143446    Uiso  ? H
   H109       1.0     0.161016     0.167150     0.101712    Uiso  ? H
   H110       1.0     0.168132     0.151917     0.885367    Uiso  ? H
   H111       1.0     0.885525     0.856587     0.166100    Uiso  ? H
   H112       1.0     0.888813     0.837711     0.154027    Uiso  ? H
   H113       1.0     0.837451     0.123617     0.149210    Uiso  ? H
   H114       1.0     0.828734     0.103071     0.144179    Uiso  ? H
   H115       1.0     0.836921     0.843078     0.120690    Uiso  ? H
   H116       1.0     0.828589     0.846738     0.100000    Uiso  ? H
   H117       1.0     0.156084     0.879588     0.836753    Uiso  ? H
   H118       1.0     0.172233     0.877650     0.853468    Uiso  ? H
   H119       1.0     0.892109     0.829548     0.854392    Uiso  ? H
   H120       1.0     0.113558     0.820483     0.863661    Uiso  ? H
   C193       1.0     0.871155     0.375367     0.445955    Uiso  ? C
   C194       1.0     0.856100     0.365648     0.458910    Uiso  ? C
   C195       1.0     0.852852     0.345602     0.459502    Uiso  ? C
   H121       1.0     0.860291     0.334791     0.451010    Uiso  ? H
   C196       1.0     0.838194     0.338657     0.472085    Uiso  ? C
   H122       1.0     0.834621     0.323597     0.472667    Uiso  ? H
   C197       1.0     0.827253     0.350995     0.484019    Uiso  ? C
   H123       1.0     0.817664     0.344253     0.494192    Uiso  ? H
   C198       1.0     0.830387     0.371214     0.483707    Uiso  ? C
   C199       1.0     0.844278     0.378354     0.470018    Uiso  ? C
   H124       1.0     0.846913     0.393619     0.469709    Uiso  ? H
   C200       1.0     0.818192     0.385371     0.494761    Uiso  ? C
   C201       1.0     0.874390     0.404136     0.401239    Uiso  ? C
   C202       1.0     0.860660     0.413474     0.388440    Uiso  ? C
   C203       1.0     0.855760     0.404531     0.370426    Uiso  ? C
   H125       1.0     0.863144     0.391558     0.365542    Uiso  ? H
   C204       1.0     0.840854     0.413236     0.358489    Uiso  ? C
   H126       1.0     0.838068     0.406169     0.344826    Uiso  ? H
   C205       1.0     0.832299     0.430227     0.363777    Uiso  ? C
   H127       1.0     0.823228     0.437057     0.353328    Uiso  ? H
   C206       1.0     0.837859     0.439434     0.381497    Uiso  ? C
   C207       1.0     0.851646     0.430587     0.392961    Uiso  ? C
   H128       1.0     0.856905     0.437966     0.405075    Uiso  ? H
   C208       1.0     0.827254     0.456179     0.389662    Uiso  ? C
   C209       1.0     0.129015     0.401649     0.406741    Uiso  ? C
   C210       1.0     0.143479     0.411507     0.395588    Uiso  ? C
   C211       1.0     0.149758     0.404270     0.378129    Uiso  ? C
   H129       1.0     0.144236     0.390204     0.373412    Uiso  ? H
   C212       1.0     0.163151     0.413083     0.366956    Uiso  ? C
   H130       1.0     0.168636     0.406368     0.353749    Uiso  ? H
   C213       1.0     0.171295     0.431300     0.372556    Uiso  ? C
   H131       1.0     0.182599     0.438622     0.363951    Uiso  ? H
   C214       1.0     0.165870     0.438272     0.391646    Uiso  ? C
   C215       1.0     0.152889     0.428355     0.402535    Uiso  ? C
   H132       1.0     0.147665     0.435285     0.415662    Uiso  ? H
   C216       1.0     0.176949     0.453738     0.400798    Uiso  ? C
   C217       1.0     0.124687     0.372932     0.446200    Uiso  ? C
   C218       1.0     0.139277     0.364310     0.458733    Uiso  ? C
   C219       1.0     0.141052     0.343898     0.459716    Uiso  ? C
   H133       1.0     0.135164     0.335064     0.449121    Uiso  ? H
   C220       1.0     0.151697     0.335244     0.474313    Uiso  ? C
   H134       1.0     0.154441     0.319545     0.472637    Uiso  ? H
   C221       1.0     0.161542     0.346448     0.488213    Uiso  ? C
   H135       1.0     0.170405     0.338064     0.498719    Uiso  ? H
   C222       1.0     0.160087     0.366930     0.487300    Uiso  ? C
   C223       1.0     0.149491     0.375544     0.472335    Uiso  ? C
   H136       1.0     0.148428     0.390921     0.471380    Uiso  ? H
   C224       1.0     0.171093     0.380255     0.501175    Uiso  ? C
   C225       1.0     0.778140     0.430493     0.533020    Uiso  ? C
   C226       1.0     0.767924     0.445643     0.545910    Uiso  ? C
   C227       1.0     0.747779     0.445434     0.548768    Uiso  ? C
   H137       1.0     0.739550     0.434073     0.543111    Uiso  ? H
   C228       1.0     0.738634     0.459015     0.559667    Uiso  ? C
   H138       1.0     0.722827     0.458072     0.562612    Uiso  ? H
   C229       1.0     0.749912     0.473155     0.569431    Uiso  ? C
   H139       1.0     0.742563     0.483179     0.578302    Uiso  ? H
   C230       1.0     0.769521     0.473940     0.567598    Uiso  ? C
   C231       1.0     0.778893     0.460735     0.554927    Uiso  ? C
   H140       1.0     0.794387     0.461777     0.553064    Uiso  ? H
   C232       1.0     0.780960     0.490144     0.577541    Uiso  ? C
   C233       1.0     0.783338     0.420282     0.483065    Uiso  ? C
   C234       1.0     0.774986     0.426334     0.464499    Uiso  ? C
   C235       1.0     0.755881     0.420441     0.459534    Uiso  ? C
   H141       1.0     0.747969     0.410076     0.467434    Uiso  ? H
   C236       1.0     0.747400     0.426572     0.442039    Uiso  ? C
   H142       1.0     0.733403     0.422565     0.438048    Uiso  ? H
   C237       1.0     0.757540     0.439717     0.429700    Uiso  ? C
   H143       1.0     0.750558     0.446508     0.417334    Uiso  ? H
   C238       1.0     0.775988     0.446247     0.435009    Uiso  ? C
   C239       1.0     0.784732     0.438537     0.451740    Uiso  ? C
   H144       1.0     0.800413     0.441737     0.454448    Uiso  ? H
   C240       1.0     0.787686     0.460847     0.423126    Uiso  ? C
   C241       1.0     0.814866     0.394632     0.543350    Uiso  ? C
   C242       1.0     0.823661     0.386864     0.560592    Uiso  ? C
   C243       1.0     0.819073     0.367618     0.567031    Uiso  ? C
   H145       1.0     0.810403     0.359757     0.557191    Uiso  ? H
   C244       1.0     0.827733     0.360113     0.583477    Uiso  ? C
   H146       1.0     0.826842     0.344576     0.585285    Uiso  ? H
   C245       1.0     0.840523     0.371165     0.594993    Uiso  ? C
   H147       1.0     0.847534     0.363836     0.607330    Uiso  ? H
   C246       1.0     0.845688     0.389525     0.588955    Uiso  ? C
   C247       1.0     0.838824     0.396858     0.571105    Uiso  ? C
   H148       1.0     0.845735     0.408904     0.564202    Uiso  ? H
   C248       1.0     0.861201     0.400459     0.598617    Uiso  ? C
   C249       1.0     0.790969     0.511591     0.418446    Uiso  ? C
   C250       1.0     0.780922     0.529163     0.424982    Uiso  ? C
   C251       1.0     0.763467     0.535016     0.416055    Uiso  ? C
   H149       1.0     0.757346     0.525804     0.403683    Uiso  ? H
   C252       1.0     0.754201     0.552723     0.421683    Uiso  ? C
   H150       1.0     0.742045     0.558051     0.413224    Uiso  ? H
   C253       1.0     0.761412     0.563101     0.437224    Uiso  ? C
   H151       1.0     0.753906     0.576193     0.440180    Uiso  ? H
   C254       1.0     0.780054     0.557498     0.445930    Uiso  ? C
   C255       1.0     0.789962     0.540854     0.438977    Uiso  ? C
   H152       1.0     0.804365     0.537651     0.444406    Uiso  ? H
   C256       1.0     0.788932     0.570286     0.460100    Uiso  ? C
   C257       1.0     0.823669     0.507356     0.382547    Uiso  ? C
   C258       1.0     0.834630     0.521687     0.369604    Uiso  ? C
   C259       1.0     0.827002     0.526630     0.351604    Uiso  ? C
   H153       1.0     0.815693     0.519250     0.344265    Uiso  ? H
   C260       1.0     0.836531     0.541088     0.340957    Uiso  ? C
   H154       1.0     0.830686     0.545947     0.327503    Uiso  ? H
   C261       1.0     0.852434     0.550658     0.349234    Uiso  ? C
   H155       1.0     0.859304     0.561981     0.340251    Uiso  ? H
   C262       1.0     0.859198     0.546897     0.367642    Uiso  ? C
   C263       1.0     0.850547     0.531926     0.377657    Uiso  ? C
   H156       1.0     0.855084     0.530476     0.392595    Uiso  ? H
   C264       1.0     0.873991     0.558471     0.376733    Uiso  ? C
   C265       1.0     0.863165     0.440910     0.628736    Uiso  ? C
   C266       1.0     0.848007     0.453313     0.636662    Uiso  ? C
   C267       1.0     0.843291     0.452367     0.656111    Uiso  ? C
   H157       1.0     0.849309     0.441288     0.666407    Uiso  ? H
   C268       1.0     0.829670     0.466015     0.663689    Uiso  ? C
   H158       1.0     0.827746     0.465999     0.678899    Uiso  ? H
   C269       1.0     0.819744     0.478765     0.651252    Uiso  ? C
   H159       1.0     0.810062     0.489382     0.657739    Uiso  ? H
   C270       1.0     0.824119     0.478664     0.631273    Uiso  ? C
   C271       1.0     0.838610     0.466419     0.624824    Uiso  ? C
   H160       1.0     0.843632     0.467209     0.609741    Uiso  ? H
   C272       1.0     0.814712     0.492855     0.617769    Uiso  ? C
   C273       1.0     0.115951     0.395909     0.600595    Uiso  ? C
   C274       1.0     0.133714     0.386776     0.593540    Uiso  ? C
   C275       1.0     0.142516     0.371844     0.604219    Uiso  ? C
   H161       1.0     0.135757     0.366711     0.618212    Uiso  ? H
   C276       1.0     0.159925     0.363656     0.598579    Uiso  ? C
   H162       1.0     0.165700     0.351298     0.607867    Uiso  ? H
   C277       1.0     0.168387     0.369398     0.581026    Uiso  ? C
   H163       1.0     0.180104     0.360251     0.574753    Uiso  ? H
   C278       1.0     0.160512     0.384897     0.569971    Uiso  ? C
   C279       1.0     0.143059     0.393510     0.576757    Uiso  ? C
   H164       1.0     0.135037     0.403283     0.568841    Uiso  ? H
   C280       1.0     0.169852     0.392352     0.551946    Uiso  ? C
   C281       1.0     0.204985     0.414098     0.493354    Uiso  ? C
   C282       1.0     0.216312     0.422608     0.477680    Uiso  ? C
   C283       1.0     0.235318     0.415475     0.475271    Uiso  ? C
   H165       1.0     0.240842     0.405545     0.486595    Uiso  ? H
   C284       1.0     0.246137     0.421970     0.460125    Uiso  ? C
   H166       1.0     0.261235     0.417204     0.458590    Uiso  ? H
   C285       1.0     0.238634     0.436099     0.447036    Uiso  ? C
   H167       1.0     0.246532     0.438829     0.434299    Uiso  ? H
   C286       1.0     0.220432     0.444573     0.450564    Uiso  ? C
   C287       1.0     0.209667     0.437812     0.466119    Uiso  ? C
   H168       1.0     0.194993     0.443872     0.468219    Uiso  ? H
   C288       1.0     0.212242     0.458725     0.436627    Uiso  ? C
   O109       1.0     0.878492     0.393114     0.448695    Uiso  ? O
   O110       1.0     0.877474     0.365301     0.430652    Uiso  ? O
   O111       1.0     0.879706     0.413906     0.416993    Uiso  ? O
   O112       1.0     0.880731     0.386728     0.398586    Uiso  ? O
   O113       1.0     0.121514     0.411770     0.420620    Uiso  ? O
   O114       1.0     0.121454     0.384763     0.401608    Uiso  ? O
   O115       1.0     0.117980     0.390022     0.450082    Uiso  ? O
   O116       1.0     0.118457     0.363357     0.431822    Uiso  ? O
   O117       1.0     0.794706     0.435671     0.526383    Uiso  ? O
   O118       1.0     0.770677     0.412458     0.529440    Uiso  ? O
   O119       1.0     0.799330     0.428493     0.490463    Uiso  ? O
   O120       1.0     0.775559     0.405408     0.492728    Uiso  ? O
   O121       1.0     0.825356     0.403418     0.499279    Uiso  ? O
   O122       1.0     0.800973     0.380923     0.500492    Uiso  ? O
   O123       1.0     0.822095     0.409637     0.534540    Uiso  ? O
   O124       1.0     0.798989     0.387036     0.537790    Uiso  ? O
   O125       1.0     0.806565     0.504757     0.427239    Uiso  ? O
   O126       1.0     0.784547     0.503170     0.403019    Uiso  ? O
   O127       1.0     0.830241     0.501699     0.399302    Uiso  ? O
   O128       1.0     0.807969     0.499397     0.375996    Uiso  ? O
   O129       1.0     0.832183     0.463285     0.406571    Uiso  ? O
   O130       1.0     0.810814     0.462693     0.381434    Uiso  ? O
   O131       1.0     0.804273     0.467244     0.429626    Uiso  ? O
   O132       1.0     0.780169     0.467776     0.407015    Uiso  ? O
   O133       1.0     0.870839     0.444636     0.611340    Uiso  ? O
   O134       1.0     0.868838     0.425508     0.638689    Uiso  ? O
   O135       1.0     0.867478     0.416497     0.589970    Uiso  ? O
   O136       1.0     0.869801     0.394574     0.615238    Uiso  ? O
   O137       1.0     0.109152     0.410718     0.590640    Uiso  ? O
   O138       1.0     0.110057     0.392818     0.618614    Uiso  ? O
   O139       1.0     0.111940     0.444067     0.609366    Uiso  ? O
   O140       1.0     0.111574     0.425112     0.636928    Uiso  ? O
   O141       1.0     0.162719     0.406985     0.541931    Uiso  ? O
   O142       1.0     0.187247     0.385137     0.547264    Uiso  ? O
   O143       1.0     0.164812     0.397730     0.504913    Uiso  ? O
   O144       1.0     0.185299     0.373488     0.510995    Uiso  ? O
   O145       1.0     0.189992     0.424010     0.500935    Uiso  ? O
   O146       1.0     0.212290     0.400141     0.503488    Uiso  ? O
   O147       1.0     0.190826     0.430426     0.536161    Uiso  ? O
   O148       1.0     0.214905     0.407682     0.539468    Uiso  ? O
   O149       1.0     0.822864     0.534608     0.594723    Uiso  ? O
   O150       1.0     0.798302     0.539703     0.615817    Uiso  ? O
   O151       1.0     0.799948     0.531478     0.566722    Uiso  ? O
   O152       1.0     0.775201     0.536232     0.587562    Uiso  ? O
   O153       1.0     0.797931     0.494313     0.570340    Uiso  ? O
   O154       1.0     0.773805     0.500269     0.592126    Uiso  ? O
   O155       1.0     0.822199     0.495747     0.600277    Uiso  ? O
   O156       1.0     0.799009     0.502983     0.622503    Uiso  ? O
   O157       1.0     0.896293     0.426976     0.451921    Uiso  ? O
   O158       1.0     0.830744     0.439823     0.509814    Uiso  ? O
   O159       1.0     0.840144     0.486814     0.434539    Uiso  ? O
   O160       1.0     0.888507     0.445030     0.575791    Uiso  ? O
   O161       1.0     0.156749     0.436491     0.516828    Uiso  ? O
   O162       1.0     0.832241     0.508247     0.564375    Uiso  ? O
   Zn25       1.0     0.896997     0.405277     0.435524    Uiso  ? Zn
   Zn26       1.0     0.897656     0.372215     0.414468    Uiso  ? Zn
   Zn27       1.0     0.810892     0.420454     0.512397    Uiso  ? Zn
   Zn28       1.0     0.784792     0.393850     0.516764    Uiso  ? Zn
   Zn29       1.0     0.821194     0.484482     0.417275    Uiso  ? Zn
   Zn30       1.0     0.794227     0.482376     0.389629    Uiso  ? Zn
   Zn31       1.0     0.888365     0.430008     0.597984    Uiso  ? Zn
   Zn32       1.0     0.887993     0.407465     0.629506    Uiso  ? Zn
   Zn33       1.0     0.174268     0.417704     0.520281    Uiso  ? Zn
   Zn34       1.0     0.201691     0.388246     0.525845    Uiso  ? Zn
   Zn35       1.0     0.812992     0.513017     0.581613    Uiso  ? Zn
   Zn36       1.0     0.784141     0.519246     0.606242    Uiso  ? Zn
   C289       1.0     0.121026     0.625429     0.559612    Uiso  ? C
   C290       1.0     0.136618     0.634279     0.547437    Uiso  ? C
   C291       1.0     0.141936     0.654131     0.549573    Uiso  ? C
   H169       1.0     0.135638     0.663289     0.560709    Uiso  ? H
   C292       1.0     0.159613     0.660423     0.541027    Uiso  ? C
   H170       1.0     0.165075     0.674864     0.542297    Uiso  ? H
   C293       1.0     0.169594     0.648537     0.528139    Uiso  ? C
   H171       1.0     0.182102     0.654237     0.521413    Uiso  ? H
   C294       1.0     0.163590     0.629535     0.525259    Uiso  ? C
   C295       1.0     0.146868     0.622429     0.534040    Uiso  ? C
   H172       1.0     0.143350     0.607236     0.532959    Uiso  ? H
   C296       1.0     0.174717     0.616806     0.511450    Uiso  ? C
   C297       1.0     0.120856     0.592370     0.600245    Uiso  ? C
   C298       1.0     0.135748     0.583879     0.613023    Uiso  ? C
   C299       1.0     0.141667     0.592504     0.630400    Uiso  ? C
   H173       1.0     0.133644     0.604875     0.635682    Uiso  ? H
   C300       1.0     0.156662     0.583914     0.640681    Uiso  ? C
   H174       1.0     0.159825     0.588437     0.655530    Uiso  ? H
   C301       1.0     0.166509     0.567931     0.633449    Uiso  ? C
   H175       1.0     0.178203     0.563001     0.641490    Uiso  ? H
   C302       1.0     0.160361     0.558371     0.617148    Uiso  ? C
   C303       1.0     0.143690     0.566342     0.607359    Uiso  ? C
   H176       1.0     0.138413     0.559798     0.593900    Uiso  ? H
   C304       1.0     0.170479     0.540153     0.610053    Uiso  ? C
   C305       1.0     0.866783     0.595424     0.603487    Uiso  ? C
   C306       1.0     0.850151     0.587186     0.614200    Uiso  ? C
   C307       1.0     0.845577     0.593055     0.632826    Uiso  ? C
   H177       1.0     0.855003     0.603332     0.639875    Uiso  ? H
   C308       1.0     0.831027     0.584425     0.643003    Uiso  ? C
   H178       1.0     0.829652     0.588318     0.658348    Uiso  ? H
   C309       1.0     0.821471     0.567784     0.634595    Uiso  ? C
   H179       1.0     0.811029     0.560196     0.644193    Uiso  ? H
   C310       1.0     0.824420     0.562062     0.615819    Uiso  ? C
   C311       1.0     0.838410     0.572626     0.605233    Uiso  ? C
   H180       1.0     0.840600     0.568641     0.590119    Uiso  ? H
   C312       1.0     0.814824     0.545073     0.608358    Uiso  ? C
   C313       1.0     0.865604     0.625717     0.560638    Uiso  ? C
   C314       1.0     0.850398     0.632677     0.547878    Uiso  ? C
   C315       1.0     0.843717     0.652242     0.548981    Uiso  ? C
   H181       1.0     0.847587     0.660623     0.561663    Uiso  ? H
   C316       1.0     0.831650     0.659652     0.533916    Uiso  ? C
   H182       1.0     0.827459     0.674192     0.534717    Uiso  ? H
   C317       1.0     0.824656     0.647991     0.519593    Uiso  ? C
   H183       1.0     0.815111     0.654625     0.509849    Uiso  ? H
   C318       1.0     0.829774     0.628696     0.519250    Uiso  ? C
   C319       1.0     0.843503     0.620842     0.532421    Uiso  ? C
   H184       1.0     0.846182     0.605412     0.532174    Uiso  ? H
   C320       1.0     0.819426     0.616304     0.505051    Uiso  ? C
   C321       1.0     0.210345     0.570774     0.467531    Uiso  ? C
   C322       1.0     0.220728     0.557067     0.454083    Uiso  ? C
   C323       1.0     0.239473     0.562037     0.447519    Uiso  ? C
   H185       1.0     0.245336     0.576244     0.450246    Uiso  ? H
   C324       1.0     0.250422     0.547939     0.437228    Uiso  ? C
   H186       1.0     0.264723     0.549852     0.430882    Uiso  ? H
   C325       1.0     0.240537     0.531340     0.430793    Uiso  ? C
   H187       1.0     0.247441     0.523513     0.419354    Uiso  ? H
   C326       1.0     0.222111     0.527160     0.436398    Uiso  ? C
   C327       1.0     0.213125     0.538542     0.450676    Uiso  ? C
   H188       1.0     0.198099     0.536418     0.455919    Uiso  ? H
   C328       1.0     0.212915     0.509639     0.429130    Uiso  ? C
   C329       1.0     0.208537     0.579799     0.518648    Uiso  ? C
   C330       1.0     0.217944     0.570291     0.535611    Uiso  ? C
   C331       1.0     0.237767     0.574103     0.539634    Uiso  ? C
   H189       1.0     0.246262     0.581944     0.529464    Uiso  ? H
   C332       1.0     0.246457     0.564542     0.555081    Uiso  ? C
   H190       1.0     0.262270     0.565343     0.556506    Uiso  ? H
   C333       1.0     0.236271     0.552112     0.567445    Uiso  ? C
   H191       1.0     0.245310     0.543777     0.577171    Uiso  ? H
   C334       1.0     0.216864     0.548741     0.564411    Uiso  ? C
   C335       1.0     0.207542     0.558534     0.548348    Uiso  ? C
   H192       1.0     0.192475     0.557660     0.546392    Uiso  ? H
   C336       1.0     0.206238     0.534853     0.577087    Uiso  ? C
   C337       1.0     0.176230     0.610035     0.460723    Uiso  ? C
   C338       1.0     0.165844     0.619084     0.443675    Uiso  ? C
   C339       1.0     0.168490     0.638568     0.438395    Uiso  ? C
   H193       1.0     0.180411     0.647724     0.445077    Uiso  ? H
   C340       1.0     0.156228     0.646545     0.423367    Uiso  ? C
   H194       1.0     0.158545     0.660951     0.418029    Uiso  ? H
   C341       1.0     0.142141     0.635410     0.413849    Uiso  ? C
   H195       1.0     0.134037     0.642598     0.402518    Uiso  ? H
   C342       1.0     0.140313     0.615489     0.418180    Uiso  ? C
   C343       1.0     0.151622     0.608011     0.434433    Uiso  ? C
   H196       1.0     0.148051     0.592881     0.438061    Uiso  ? H
   C344       1.0     0.126888     0.602030     0.407724    Uiso  ? C
   C345       1.0     0.207126     0.483661     0.586214    Uiso  ? C
   C346       1.0     0.216199     0.466013     0.578891    Uiso  ? C
   C347       1.0     0.236548     0.463350     0.582964    Uiso  ? C
   H197       1.0     0.243672     0.474539     0.591504    Uiso  ? H
   C348       1.0     0.245870     0.446625     0.575920    Uiso  ? C
   H198       1.0     0.260502     0.443196     0.579557    Uiso  ? H
   C349       1.0     0.237098     0.435552     0.561538    Uiso  ? C
   H199       1.0     0.244589     0.423824     0.555853    Uiso  ? H
   C350       1.0     0.217685     0.438699     0.556628    Uiso  ? C
   C351       1.0     0.206947     0.453369     0.565565    Uiso  ? C
   H200       1.0     0.192879     0.456160     0.559590    Uiso  ? H
   C352       1.0     0.207849     0.425309     0.542958    Uiso  ? C
   C353       1.0     0.168773     0.491222     0.618813    Uiso  ? C
   C354       1.0     0.157384     0.477236     0.631652    Uiso  ? C
   C355       1.0     0.163015     0.475156     0.651353    Uiso  ? C
   H201       1.0     0.172425     0.485034     0.657846    Uiso  ? H
   C356       1.0     0.153060     0.462395     0.662699    Uiso  ? C
   H202       1.0     0.153915     0.460060     0.677980    Uiso  ? H
   C357       1.0     0.138134     0.451158     0.655015    Uiso  ? C
   H203       1.0     0.129817     0.441470     0.663875    Uiso  ? H
   C358       1.0     0.133677     0.451923     0.635600    Uiso  ? C
   C359       1.0     0.142761     0.465682     0.623396    Uiso  ? C
   H204       1.0     0.139239     0.467032     0.608154    Uiso  ? H
   C360       1.0     0.117508     0.440298     0.627664    Uiso  ? C
   C361       1.0     0.129250     0.558126     0.379290    Uiso  ? C
   C362       1.0     0.144160     0.543953     0.372167    Uiso  ? C
   C363       1.0     0.148235     0.544059     0.351930    Uiso  ? C
   H205       1.0     0.139509     0.551578     0.341975    Uiso  ? H
   C364       1.0     0.163148     0.531788     0.345408    Uiso  ? C
   H206       1.0     0.168789     0.533521     0.331748    Uiso  ? H
   C365       1.0     0.172557     0.518493     0.358004    Uiso  ? C
   H207       1.0     0.184891     0.509977     0.353496    Uiso  ? H
   C366       1.0     0.168281     0.518420     0.378181    Uiso  ? C
   C367       1.0     0.153280     0.531129     0.384378    Uiso  ? C
   H208       1.0     0.148581     0.530808     0.399039    Uiso  ? H
   C368       1.0     0.176894     0.503899     0.391735    Uiso  ? C
   C369       1.0     0.873640     0.601159     0.404396    Uiso  ? C
   C370       1.0     0.857846     0.613896     0.412986    Uiso  ? C
   C371       1.0     0.848154     0.628674     0.401981    Uiso  ? C
   H209       1.0     0.853566     0.633114     0.387520    Uiso  ? H
   C372       1.0     0.832435     0.638199     0.411451    Uiso  ? C
   H210       1.0     0.824587     0.650097     0.404010    Uiso  ? H
   C373       1.0     0.825324     0.632559     0.428938    Uiso  ? C
   H211       1.0     0.815137     0.642684     0.436443    Uiso  ? H
   C374       1.0     0.834113     0.616566     0.438865    Uiso  ? C
   C375       1.0     0.850954     0.608403     0.431858    Uiso  ? C
   H212       1.0     0.856378     0.595135     0.438675    Uiso  ? H
   C376       1.0     0.823141     0.608586     0.456606    Uiso  ? C
   C377       1.0     0.785507     0.581396     0.511444    Uiso  ? C
   C378       1.0     0.775542     0.574948     0.529218    Uiso  ? C
   C379       1.0     0.759196     0.584970     0.535457    Uiso  ? C
   H213       1.0     0.753231     0.598100     0.527086    Uiso  ? H
   C380       1.0     0.750534     0.580336     0.553165    Uiso  ? C
   H214       1.0     0.738678     0.588279     0.558738    Uiso  ? H
   C381       1.0     0.759328     0.566194     0.564938    Uiso  ? C
   H215       1.0     0.752793     0.562824     0.578750    Uiso  ? H
   C382       1.0     0.776040     0.556014     0.559088    Uiso  ? C
   C383       1.0     0.783843     0.559725     0.540963    Uiso  ? C
   H216       1.0     0.796684     0.551346     0.536676    Uiso  ? H
   C384       1.0     0.784430     0.541078     0.571537    Uiso  ? C
   O163       1.0     0.115054     0.607591     0.557000    Uiso  ? O
   O164       1.0     0.114169     0.635334     0.574486    Uiso  ? O
   O165       1.0     0.112359     0.583017     0.585374    Uiso  ? O
   O166       1.0     0.115418     0.610895     0.603441    Uiso  ? O
   O167       1.0     0.873019     0.585944     0.588247    Uiso  ? O
   O168       1.0     0.873578     0.612796     0.606694    Uiso  ? O
   O169       1.0     0.872961     0.608156     0.556664    Uiso  ? O
   O170       1.0     0.871896     0.635220     0.575637    Uiso  ? O
   O171       1.0     0.194325     0.565478     0.475253    Uiso  ? O
   O172       1.0     0.218273     0.587307     0.471698    Uiso  ? O
   O173       1.0     0.191996     0.573694     0.512564    Uiso  ? O
   O174       1.0     0.217136     0.593640     0.509503    Uiso  ? O
   O175       1.0     0.166988     0.599682     0.506092    Uiso  ? O
   O176       1.0     0.191639     0.622293     0.503951    Uiso  ? O
   O177       1.0     0.168642     0.593394     0.468387    Uiso  ? O
   O178       1.0     0.193702     0.616469     0.466718    Uiso  ? O
   O179       1.0     0.191513     0.489589     0.577207    Uiso  ? O
   O180       1.0     0.214499     0.493082     0.601426    Uiso  ? O
   O181       1.0     0.162566     0.495425     0.600979    Uiso  ? O
   O182       1.0     0.184704     0.499588     0.625544    Uiso  ? O
   O183       1.0     0.163821     0.531438     0.594785    Uiso  ? O
   O184       1.0     0.185721     0.534360     0.619244    Uiso  ? O
   O185       1.0     0.190477     0.526987     0.570296    Uiso  ? O
   O186       1.0     0.212470     0.531541     0.594956    Uiso  ? O
   O187       1.0     0.121617     0.554746     0.396620    Uiso  ? O
   O188       1.0     0.122924     0.572142     0.368726    Uiso  ? O
   O189       1.0     0.121959     0.585712     0.416050    Uiso  ? O
   O190       1.0     0.120344     0.605603     0.389921    Uiso  ? O
   O191       1.0     0.880529     0.586520     0.414858    Uiso  ? O
   O192       1.0     0.881502     0.603679     0.386956    Uiso  ? O
   O193       1.0     0.879834     0.554456     0.394482    Uiso  ? O
   O194       1.0     0.882001     0.573414     0.367646    Uiso  ? O
   O195       1.0     0.831386     0.595740     0.467511    Uiso  ? O
   O196       1.0     0.805077     0.613867     0.459710    Uiso  ? O
   O197       1.0     0.826367     0.598308     0.503907    Uiso  ? O
   O198       1.0     0.804576     0.622014     0.495033    Uiso  ? O
   O199       1.0     0.801488     0.573094     0.505732    Uiso  ? O
   O200       1.0     0.778903     0.596331     0.502193    Uiso  ? O
   O201       1.0     0.805939     0.566533     0.467485    Uiso  ? O
   O202       1.0     0.780212     0.586362     0.464842    Uiso  ? O
   O203       1.0     0.169252     0.462849     0.415436    Uiso  ? O
   O204       1.0     0.193159     0.460447     0.392363    Uiso  ? O
   O205       1.0     0.197313     0.469251     0.441505    Uiso  ? O
   O206       1.0     0.219298     0.460553     0.418446    Uiso  ? O
   O207       1.0     0.195615     0.504549     0.435223    Uiso  ? O
   O208       1.0     0.220621     0.500137     0.414661    Uiso  ? O
   O209       1.0     0.169646     0.500591     0.408134    Uiso  ? O
   O210       1.0     0.193534     0.496695     0.386433    Uiso  ? O
   O211       1.0     0.890067     0.572611     0.552614    Uiso  ? O
   O212       1.0     0.160669     0.563169     0.492969    Uiso  ? O
   O213       1.0     0.159196     0.507531     0.563601    Uiso  ? O
   O214       1.0     0.102021     0.553633     0.429592    Uiso  ? O
   O215       1.0     0.837401     0.564455     0.492010    Uiso  ? O
   O216       1.0     0.161913     0.486916     0.445808    Uiso  ? O
   Zn37       1.0     0.891433     0.594038     0.569347    Uiso  ? Zn
   Zn38       1.0     0.891881     0.626097     0.591656    Uiso  ? Zn
   Zn39       1.0     0.178936     0.580866     0.490374    Uiso  ? Zn
   Zn40       1.0     0.208168     0.607372     0.487514    Uiso  ? Zn
   Zn41       1.0     0.175634     0.509479     0.583520    Uiso  ? Zn
   Zn42       1.0     0.200791     0.513686     0.612202    Uiso  ? Zn
   Zn43       1.0     0.102848     0.568092     0.407808    Uiso  ? Zn
   Zn44       1.0     0.104442     0.589146     0.375164    Uiso  ? Zn
   Zn45       1.0     0.817621     0.581818     0.486200    Uiso  ? Zn
   Zn46       1.0     0.789351     0.605962     0.480500    Uiso  ? Zn
   Zn47       1.0     0.181182     0.483761     0.427831    Uiso  ? Zn
   Zn48       1.0     0.209417     0.478732     0.400242    Uiso  ? Zn
   H217       1.0     0.166570     0.550440     0.496787    Uiso  ? H
   H218       1.0     0.155773     0.560175     0.479867    Uiso  ? H
   H219       1.0     0.827515     0.452133     0.515364    Uiso  ? H
   H220       1.0     0.841938     0.434668     0.517522    Uiso  ? H
   H221       1.0     0.826997     0.499896     0.554117    Uiso  ? H
   H222       1.0     0.842121     0.499990     0.571022    Uiso  ? H
   H223       1.0     0.104975     0.449123     0.571730    Uiso  ? H
   H224       1.0     0.883202     0.457792     0.578891    Uiso  ? H
   H225       1.0     0.147720     0.485179     0.440238    Uiso  ? H
   H226       1.0     0.161932     0.499485     0.452449    Uiso  ? H
   H227       1.0     0.113418     0.429648     0.455852    Uiso  ? H
   H228       1.0     0.889476     0.423775     0.464134    Uiso  ? H
   H229       1.0     0.162566     0.446618     0.525755    Uiso  ? H
   H230       1.0     0.144338     0.433454     0.522376    Uiso  ? H
   H231       1.0     0.113549     0.545702     0.430883    Uiso  ? H
   H232       1.0     0.103101     0.563426     0.439727    Uiso  ? H
   H233       1.0     0.839070     0.496428     0.445768    Uiso  ? H
   H234       1.0     0.840950     0.474056     0.441033    Uiso  ? H
   H235       1.0     0.846041     0.565602     0.480902    Uiso  ? H
   H236       1.0     0.833188     0.551061     0.491548    Uiso  ? H
   H237       1.0     0.160642     0.495817     0.555193    Uiso  ? H
   H238       1.0     0.146225     0.506141     0.569459    Uiso  ? H
   H239       1.0     0.879648     0.573399     0.542421    Uiso  ? H
   H240       1.0     0.887871     0.560741     0.560123    Uiso  ? H
   C385       1.0     0.606125     0.849173     0.422472    Uiso  ? C
   C386       1.0     0.617940     0.839429     0.436841    Uiso  ? C
   C387       1.0     0.637647     0.834309     0.432339    Uiso  ? C
   H241       1.0     0.645192     0.837232     0.418948    Uiso  ? H
   C388       1.0     0.647405     0.822330     0.445046    Uiso  ? C
   H242       1.0     0.662824     0.818707     0.442855    Uiso  ? H
   C389       1.0     0.637934     0.816331     0.463091    Uiso  ? C
   H243       1.0     0.645770     0.806168     0.473634    Uiso  ? H
   C390       1.0     0.619024     0.821085     0.466948    Uiso  ? C
   C391       1.0     0.609273     0.832524     0.453443    Uiso  ? C
   H244       1.0     0.594329     0.837868     0.456340    Uiso  ? H
   C392       1.0     0.609906     0.815033     0.485356    Uiso  ? C
   C393       1.0     0.568837     0.841001     0.389868    Uiso  ? C
   C394       1.0     0.557735     0.824367     0.385092    Uiso  ? C
   C395       1.0     0.561503     0.813341     0.368905    Uiso  ? C
   H245       1.0     0.573892     0.815694     0.359680    Uiso  ? H
   C396       1.0     0.550049     0.796895     0.364841    Uiso  ? C
   H246       1.0     0.550953     0.790610     0.349931    Uiso  ? H
   C397       1.0     0.536645     0.789784     0.378216    Uiso  ? C
   H247       1.0     0.526907     0.777550     0.373013    Uiso  ? H
   C398       1.0     0.533542     0.799730     0.395845    Uiso  ? C
   C399       1.0     0.544110     0.817017     0.398927    Uiso  ? C
   H248       1.0     0.541639     0.824734     0.411391    Uiso  ? H
   C400       1.0     0.519778     0.793084     0.410353    Uiso  ? C
   C401       1.0     0.567194     0.891626     0.380007    Uiso  ? C
   C402       1.0     0.555234     0.106062     0.366542    Uiso  ? C
   C403       1.0     0.559227     0.107797     0.346704    Uiso  ? C
   H249       1.0     0.572558     0.898024     0.341033    Uiso  ? H
   C404       1.0     0.546998     0.118972     0.334829    Uiso  ? C
   H250       1.0     0.550763     0.120232     0.319811    Uiso  ? H
   C405       1.0     0.532250     0.130077     0.342761    Uiso  ? C
   H251       1.0     0.524222     0.138803     0.333174    Uiso  ? H
   C406       1.0     0.528095     0.129668     0.363012    Uiso  ? C
   C407       1.0     0.541330     0.118988     0.375052    Uiso  ? C
   H252       1.0     0.540397     0.121836     0.390516    Uiso  ? H
   C408       1.0     0.512946     0.142079     0.371545    Uiso  ? C
   C409       1.0     0.606257     0.897620     0.410387    Uiso  ? C
   C410       1.0     0.618663     0.118662     0.416250    Uiso  ? C
   C411       1.0     0.637355     0.122548     0.408358    Uiso  ? C
   H253       1.0     0.644853     0.111250     0.399280    Uiso  ? H
   C412       1.0     0.646284     0.140408     0.411822    Uiso  ? C
   H254       1.0     0.659929     0.144398     0.404994    Uiso  ? H
   C413       1.0     0.637724     0.153866     0.424471    Uiso  ? C
   H255       1.0     0.644848     0.167449     0.428882    Uiso  ? H
   C414       1.0     0.619622     0.149828     0.432735    Uiso  ? C
   C415       1.0     0.609917     0.132802     0.427966    Uiso  ? C
   H256       1.0     0.595017     0.131310     0.432861    Uiso  ? H
   C416       1.0     0.610714     0.164661     0.444858    Uiso  ? C
   C417       1.0     0.575510     0.796577     0.545064    Uiso  ? C
   C418       1.0     0.565530     0.791202     0.562802    Uiso  ? C
   C419       1.0     0.571759     0.774174     0.573358    Uiso  ? C
   H257       1.0     0.583362     0.763780     0.568848    Uiso  ? H
   C420       1.0     0.566180     0.771967     0.592547    Uiso  ? C
   H258       1.0     0.572100     0.758914     0.599347    Uiso  ? H
   C421       1.0     0.553722     0.785297     0.601378    Uiso  ? C
   H259       1.0     0.550036     0.784485     0.616254    Uiso  ? H
   C422       1.0     0.543707     0.799632     0.590141    Uiso  ? C
   C423       1.0     0.549811     0.801772     0.570508    Uiso  ? C
   H260       1.0     0.542363     0.811264     0.560390    Uiso  ? H
   C424       1.0     0.529509     0.812378     0.598750    Uiso  ? C
   C425       1.0     0.575390     0.779812     0.496679    Uiso  ? C
   C426       1.0     0.563057     0.766198     0.485678    Uiso  ? C
   C427       1.0     0.569509     0.747042     0.482559    Uiso  ? C
   H261       1.0     0.582719     0.740839     0.488612    Uiso  ? H
   C428       1.0     0.559493     0.735780     0.470113    Uiso  ? C
   H262       1.0     0.564678     0.720490     0.469145    Uiso  ? H
   C429       1.0     0.542314     0.741702     0.461939    Uiso  ? C
   H263       1.0     0.532860     0.733045     0.453644    Uiso  ? H
   C430       1.0     0.536038     0.760798     0.464720    Uiso  ? C
   C431       1.0     0.546093     0.772528     0.477436    Uiso  ? C
   H264       1.0     0.541893     0.786909     0.478474    Uiso  ? H
   C432       1.0     0.518337     0.767645     0.453300    Uiso  ? C
   C433       1.0     0.613506     0.829194     0.533962    Uiso  ? C
   C434       1.0     0.625851     0.843525     0.545362    Uiso  ? C
   C435       1.0     0.645793     0.841106     0.549544    Uiso  ? C
   H265       1.0     0.654717     0.830220     0.542359    Uiso  ? H
   C436       1.0     0.655596     0.855845     0.559825    Uiso  ? C
   H266       1.0     0.671312     0.854270     0.563363    Uiso  ? H
   C437       1.0     0.646831     0.872694     0.567146    Uiso  ? C
   H267       1.0     0.655511     0.882859     0.574586    Uiso  ? H
   C438       1.0     0.626546     0.874707     0.564371    Uiso  ? C
   C439       1.0     0.616624     0.860043     0.553125    Uiso  ? C
   H268       1.0     0.601218     0.861977     0.549872    Uiso  ? H
   C440       1.0     0.616361     0.892114     0.572676    Uiso  ? C
   C441       1.0     0.468927     0.769164     0.454131    Uiso  ? C
   C442       1.0     0.453188     0.762541     0.468609    Uiso  ? C
   C443       1.0     0.443748     0.744838     0.466309    Uiso  ? C
   H269       1.0     0.447445     0.735941     0.454072    Uiso  ? H
   C444       1.0     0.427450     0.739332     0.478299    Uiso  ? C
   H270       1.0     0.420728     0.724899     0.477019    Uiso  ? H
   C445       1.0     0.423377     0.751583     0.494088    Uiso  ? C
   H271       1.0     0.412578     0.746720     0.504528    Uiso  ? H
   C446       1.0     0.432100     0.770023     0.496112    Uiso  ? C
   C447       1.0     0.446583     0.774916     0.483280    Uiso  ? C
   H272       1.0     0.456768     0.787140     0.486325    Uiso  ? H
   C448       1.0     0.424475     0.783652     0.511364    Uiso  ? C
   C449       1.0     0.466368     0.795313     0.410345    Uiso  ? C
   C450       1.0     0.449932     0.803133     0.398753    Uiso  ? C
   C451       1.0     0.443330     0.793975     0.381921    Uiso  ? C
   H273       1.0     0.452041     0.781623     0.376726    Uiso  ? H
   C452       1.0     0.426629     0.800248     0.372574    Uiso  ? C
   H274       1.0     0.422732     0.792150     0.360483    Uiso  ? H
   C453       1.0     0.417500     0.817296     0.379315    Uiso  ? C
   H275       1.0     0.403558     0.821132     0.372600    Uiso  ? H
   C454       1.0     0.425172     0.828163     0.394857    Uiso  ? C
   C455       1.0     0.441878     0.821554     0.403823    Uiso  ? C
   H276       1.0     0.449588     0.829398     0.416240    Uiso  ? H
   C456       1.0     0.415181     0.845637     0.401720    Uiso  ? C
   C457       1.0     0.586758     0.103381     0.611757    Uiso  ? C
   C458       1.0     0.577136     0.886740     0.627292    Uiso  ? C
   C459       1.0     0.583009     0.886824     0.646770    Uiso  ? C
   H277       1.0     0.596187     0.895089     0.650255    Uiso  ? H
   C460       1.0     0.572705     0.877443     0.661045    Uiso  ? C
   H278       1.0     0.577738     0.877526     0.676161    Uiso  ? H
   C461       1.0     0.556166     0.867059     0.656082    Uiso  ? C
   H279       1.0     0.547634     0.859460     0.667116    Uiso  ? H
   C462       1.0     0.551402     0.865188     0.636344    Uiso  ? C
   C463       1.0     0.561192     0.876202     0.622245    Uiso  ? C
   H280       1.0     0.556126     0.876825     0.607037    Uiso  ? H
   C464       1.0     0.534890     0.853057     0.629972    Uiso  ? C
   C465       1.0     0.617384     0.143217     0.559236    Uiso  ? C
   C466       1.0     0.625909     0.154273     0.543421    Uiso  ? C
   C467       1.0     0.644626     0.161623     0.546288    Uiso  ? C
   H281       1.0     0.652391     0.158363     0.559496    Uiso  ? H
   C468       1.0     0.652687     0.173745     0.531634    Uiso  ? C
   H282       1.0     0.667343     0.180403     0.533509    Uiso  ? H
   C469       1.0     0.643233     0.176531     0.513740    Uiso  ? C
   H283       1.0     0.649977     0.185220     0.501818    Uiso  ? H
   C470       1.0     0.623929     0.170608     0.511705    Uiso  ? C
   C471       1.0     0.615506     0.159544     0.526877    Uiso  ? C
   H284       1.0     0.599977     0.155065     0.526942    Uiso  ? H
   C472       1.0     0.612775     0.175460     0.493822    Uiso  ? C
   C473       1.0     0.573078     0.200214     0.439167    Uiso  ? C
   C474       1.0     0.561429     0.205765     0.421868    Uiso  ? C
   C475       1.0     0.568353     0.219526     0.408998    Uiso  ? C
   H285       1.0     0.581540     0.227570     0.411694    Uiso  ? H
   C476       1.0     0.558456     0.224989     0.392426    Uiso  ? C
   H286       1.0     0.564074     0.236808     0.383573    Uiso  ? H
   C477       1.0     0.542880     0.213733     0.386827    Uiso  ? C
   H287       1.0     0.536385     0.217562     0.372500    Uiso  ? H
   C478       1.0     0.535410     0.199541     0.399480    Uiso  ? C
   C479       1.0     0.544261     0.196587     0.417653    Uiso  ? C
   H288       1.0     0.537871     0.186289     0.427583    Uiso  ? H
   C480       1.0     0.519598     0.186838     0.393465    Uiso  ? C
   O217       1.0     0.590042     0.857224     0.428564    Uiso  ? O
   O218       1.0     0.612596     0.852156     0.405079    Uiso  ? O
   O219       1.0     0.562852     0.853179     0.403352    Uiso  ? O
   O220       1.0     0.585555     0.843473     0.381497    Uiso  ? O
   O221       1.0     0.562495     0.889194     0.398387    Uiso  ? O
   O222       1.0     0.582169     0.881711     0.372958    Uiso  ? O
   O223       1.0     0.590267     0.893178     0.420228    Uiso  ? O
   O224       1.0     0.611691     0.887416     0.394854    Uiso  ? O
   O225       1.0     0.569666     0.811170     0.534034    Uiso  ? O
   O226       1.0     0.590477     0.786237     0.538571    Uiso  ? O
   O227       1.0     0.568463     0.797006     0.499300    Uiso  ? O
   O228       1.0     0.592537     0.775750     0.503722    Uiso  ? O
   O229       1.0     0.594233     0.823484     0.490397    Uiso  ? O
   O230       1.0     0.617619     0.801037     0.496024    Uiso  ? O
   O231       1.0     0.597827     0.834623     0.524900    Uiso  ? O
   O232       1.0     0.618764     0.810846     0.533531    Uiso  ? O
   O233       1.0     0.475732     0.786774     0.456675    Uiso  ? O
   O234       1.0     0.473472     0.759027     0.438964    Uiso  ? O
   O235       1.0     0.475981     0.807549     0.422453    Uiso  ? O
   O236       1.0     0.471118     0.776855     0.409052    Uiso  ? O
   O237       1.0     0.515169     0.804107     0.424802    Uiso  ? O
   O238       1.0     0.510007     0.777034     0.405928    Uiso  ? O
   O239       1.0     0.513747     0.786005     0.453844    Uiso  ? O
   O240       1.0     0.510327     0.756406     0.440392    Uiso  ? O
   O241       1.0     0.577439     0.106589     0.595451    Uiso  ? O
   O242       1.0     0.603983     0.111323     0.613896    Uiso  ? O
   O243       1.0     0.599426     0.896311     0.566883    Uiso  ? O
   O244       1.0     0.626063     0.107038     0.585371    Uiso  ? O
   O245       1.0     0.600811     0.135333     0.556878    Uiso  ? O
   O246       1.0     0.625686     0.142101     0.575856    Uiso  ? O
   O247       1.0     0.575744     0.144527     0.584323    Uiso  ? O
   O248       1.0     0.599533     0.149363     0.605201    Uiso  ? O
   O249       1.0     0.596999     0.166235     0.489075    Uiso  ? O
   O250       1.0     0.617386     0.190699     0.483784    Uiso  ? O
   O251       1.0     0.594068     0.161184     0.454713    Uiso  ? O
   O252       1.0     0.619133     0.181040     0.447455    Uiso  ? O
   O253       1.0     0.567679     0.186163     0.450470    Uiso  ? O
   O254       1.0     0.589829     0.208278     0.442019    Uiso  ? O
   O255       1.0     0.572534     0.195873     0.486856    Uiso  ? O
   O256       1.0     0.593924     0.219777     0.476436    Uiso  ? O
   O257       1.0     0.487994     0.859142     0.612520    Uiso  ? O
   O258       1.0     0.489406     0.843968     0.640897    Uiso  ? O
   O259       1.0     0.485786     0.827758     0.596569    Uiso  ? O
   O260       1.0     0.488859     0.808910     0.623908    Uiso  ? O
   O261       1.0     0.521292     0.826705     0.588845    Uiso  ? O
   O262       1.0     0.525048     0.811338     0.617576    Uiso  ? O
   O263       1.0     0.527570     0.856684     0.612115    Uiso  ? O
   O264       1.0     0.528923     0.838877     0.640641    Uiso  ? O
   O265       1.0     0.555533     0.876918     0.435307    Uiso  ? O
   O266       1.0     0.562144     0.834276     0.504337    Uiso  ? O
   O267       1.0     0.494018     0.821616     0.453324    Uiso  ? O
   O268       1.0     0.564394     0.118897     0.560057    Uiso  ? O
   O269       1.0     0.561555     0.160137     0.477368    Uiso  ? O
   O270       1.0     0.502932     0.859518     0.576403    Uiso  ? O
   Zn49       1.0     0.573780     0.873395     0.416080    Uiso  ? Zn
   Zn50       1.0     0.600342     0.865734     0.386213    Uiso  ? Zn
   Zn51       1.0     0.580831     0.817257     0.511557    Uiso  ? Zn
   Zn52       1.0     0.608050     0.790681     0.518876    Uiso  ? Zn
   Zn53       1.0     0.494315     0.798389     0.441464    Uiso  ? Zn
   Zn54       1.0     0.492073     0.765047     0.421650    Uiso  ? Zn
   Zn55       1.0     0.586211     0.122378     0.574697    Uiso  ? Zn
   Zn56       1.0     0.615750     0.128708     0.597418    Uiso  ? Zn
   Zn57       1.0     0.579979     0.176549     0.471240    Uiso  ? Zn
   Zn58       1.0     0.607164     0.201508     0.462285    Uiso  ? Zn
   Zn59       1.0     0.505412     0.844873     0.599203    Uiso  ? Zn
   Zn60       1.0     0.507561     0.823981     0.633899    Uiso  ? Zn
   C481       1.0     0.394807     0.149996     0.573573    Uiso  ? C
   C482       1.0     0.382931     0.159998     0.559056    Uiso  ? C
   C483       1.0     0.364498     0.165668     0.564510    Uiso  ? C
   H289       1.0     0.358840     0.161118     0.578149    Uiso  ? H
   C484       1.0     0.352863     0.177215     0.552601    Uiso  ? C
   H290       1.0     0.339263     0.181751     0.556833    Uiso  ? H
   C485       1.0     0.359488     0.183354     0.534154    Uiso  ? C
   H291       1.0     0.351001     0.193613     0.526296    Uiso  ? H
   C486       1.0     0.378037     0.177412     0.528158    Uiso  ? C
   C487       1.0     0.389277     0.165024     0.540407    Uiso  ? C
   H292       1.0     0.404536     0.161667     0.536092    Uiso  ? H
   C488       1.0     0.386854     0.184099     0.510495    Uiso  ? C
   C489       1.0     0.430922     0.160680     0.607021    Uiso  ? C
   C490       1.0     0.441323     0.179040     0.610221    Uiso  ? C
   C491       1.0     0.437200     0.191421     0.625306    Uiso  ? C
   H293       1.0     0.425581     0.187020     0.635627    Uiso  ? H
   C492       1.0     0.446480     0.210110     0.627832    Uiso  ? C
   H294       1.0     0.444288     0.219149     0.640580    Uiso  ? H
   C493       1.0     0.462521     0.214246     0.615913    Uiso  ? C
   H295       1.0     0.470758     0.227077     0.618377    Uiso  ? H
   C494       1.0     0.467062     0.201886     0.600464    Uiso  ? C
   C495       1.0     0.456221     0.185047     0.597695    Uiso  ? C
   H296       1.0     0.460412     0.176219     0.584906    Uiso  ? H
   C496       1.0     0.483011     0.207133     0.587389    Uiso  ? C
   C497       1.0     0.434418     0.112035     0.618997    Uiso  ? C
   C498       1.0     0.447835     0.103018     0.633121    Uiso  ? C
   C499       1.0     0.443939     0.103583     0.653336    Uiso  ? C
   H297       1.0     0.432469     0.113703     0.659691    Uiso  ? H
   C500       1.0     0.452262     0.887362     0.666129    Uiso  ? C
   H298       1.0     0.449564     0.888458     0.681511    Uiso  ? H
   C501       1.0     0.466693     0.875022     0.659076    Uiso  ? C
   H299       1.0     0.473447     0.864387     0.668000    Uiso  ? H
   C502       1.0     0.469086     0.873299     0.638544    Uiso  ? C
   C503       1.0     0.461991     0.887650     0.626055    Uiso  ? C
   H300       1.0     0.465184     0.887984     0.611349    Uiso  ? H
   C504       1.0     0.483120     0.858476     0.630500    Uiso  ? C
   C505       1.0     0.396287     0.895970     0.587488    Uiso  ? C
   C506       1.0     0.384572     0.878412     0.583234    Uiso  ? C
   C507       1.0     0.367317     0.874537     0.593078    Uiso  ? C
   H301       1.0     0.361249     0.882930     0.604742    Uiso  ? H
   C508       1.0     0.356744     0.857177     0.587388    Uiso  ? C
   H302       1.0     0.343103     0.853783     0.595074    Uiso  ? H
   C509       1.0     0.365992     0.843018     0.576953    Uiso  ? C
   H303       1.0     0.358253     0.829747     0.575785    Uiso  ? H
   C510       1.0     0.384220     0.846533     0.566823    Uiso  ? C
   C511       1.0     0.393149     0.864094     0.570894    Uiso  ? C
   H304       1.0     0.407154     0.867325     0.563513    Uiso  ? H
   C512       1.0     0.393271     0.831784     0.555104    Uiso  ? C
   C513       1.0     0.420052     0.206774     0.451666    Uiso  ? C
   C514       1.0     0.430915     0.212001     0.434292    Uiso  ? C
   C515       1.0     0.425380     0.229425     0.423805    Uiso  ? C
   H305       1.0     0.413985     0.239575     0.429850    Uiso  ? H
   C516       1.0     0.433526     0.232888     0.405433    Uiso  ? C
   H306       1.0     0.430053     0.246147     0.397713    Uiso  ? H
   C517       1.0     0.447565     0.220487     0.397469    Uiso  ? C
   H307       1.0     0.455690     0.224757     0.383960    Uiso  ? H
   C518       1.0     0.453235     0.203623     0.407687    Uiso  ? C
   C519       1.0     0.444667     0.198856     0.425235    Uiso  ? C
   H308       1.0     0.448387     0.184285     0.431234    Uiso  ? H
   C520       1.0     0.467641     0.189309     0.398940    Uiso  ? C
   C521       1.0     0.423989     0.220649     0.499995    Uiso  ? C
   C522       1.0     0.434707     0.234360     0.513079    Uiso  ? C
   C523       1.0     0.427776     0.253344     0.515999    Uiso  ? C
   H309       1.0     0.412167     0.255882     0.512014    Uiso  ? H
   C524       1.0     0.437633     0.266457     0.527990    Uiso  ? C
   H310       1.0     0.431704     0.280455     0.531033    Uiso  ? H
   C525       1.0     0.455171     0.261175     0.536336    Uiso  ? C
   H311       1.0     0.462133     0.271107     0.544195    Uiso  ? H
   C526       1.0     0.462410     0.241876     0.533654    Uiso  ? C
   C527       1.0     0.452376     0.228680     0.521736    Uiso  ? C
   H312       1.0     0.458531     0.215232     0.519471    Uiso  ? H
   C528       1.0     0.479906     0.234265     0.544908    Uiso  ? C
   C529       1.0     0.386713     0.171950     0.461457    Uiso  ? C
   C530       1.0     0.375647     0.157274     0.450303    Uiso  ? C
   C531       1.0     0.357293     0.162355     0.442583    Uiso  ? C
   H313       1.0     0.353423     0.177748     0.442759    Uiso  ? H
   C532       1.0     0.346973     0.148797     0.432231    Uiso  ? C
   H314       1.0     0.333137     0.154087     0.425885    Uiso  ? H
   C533       1.0     0.354172     0.130244     0.428827    Uiso  ? C
   H315       1.0     0.346476     0.120371     0.419549    Uiso  ? H
   C534       1.0     0.372218     0.125049     0.435580    Uiso  ? C
   C535       1.0     0.382451     0.138378     0.447213    Uiso  ? C
   H316       1.0     0.397003     0.134322     0.451188    Uiso  ? H
   C536       1.0     0.381384     0.106680     0.428140    Uiso  ? C
   C537       1.0     0.529418     0.231796     0.538101    Uiso  ? C
   C538       1.0     0.544615     0.237831     0.523582    Uiso  ? C
   C539       1.0     0.550360     0.256892     0.521600    Uiso  ? C
   H317       1.0     0.542990     0.268438     0.528338    Uiso  ? H
   C540       1.0     0.565607     0.262691     0.509871    Uiso  ? C
   H318       1.0     0.568197     0.277966     0.507292    Uiso  ? H
   C541       1.0     0.575285     0.248293     0.498410    Uiso  ? C
   H319       1.0     0.585743     0.253329     0.488556    Uiso  ? H
   C542       1.0     0.569534     0.228136     0.499491    Uiso  ? C
   C543       1.0     0.554906     0.223678     0.512564    Uiso  ? C
   H320       1.0     0.551093     0.208825     0.514271    Uiso  ? H
   C544       1.0     0.578928     0.213906     0.487395    Uiso  ? C
   C545       1.0     0.532748     0.206401     0.583755    Uiso  ? C
   C546       1.0     0.550016     0.199240     0.595148    Uiso  ? C
   C547       1.0     0.557597     0.210551     0.609857    Uiso  ? C
   H321       1.0     0.549653     0.224442     0.613187    Uiso  ? H
   C548       1.0     0.572847     0.203744     0.620236    Uiso  ? C
   H322       1.0     0.578706     0.211446     0.631369    Uiso  ? H
   C549       1.0     0.580433     0.185166     0.617621    Uiso  ? C
   H323       1.0     0.591386     0.179446     0.627567    Uiso  ? H
   C550       1.0     0.574446     0.173972     0.601814    Uiso  ? C
   C551       1.0     0.558584     0.181159     0.590909    Uiso  ? C
   H324       1.0     0.554361     0.173795     0.578685    Uiso  ? H
   C552       1.0     0.583498     0.154985     0.597441    Uiso  ? C
   C553       1.0     0.412296     0.895823     0.392267    Uiso  ? C
   C554       1.0     0.422374     0.111744     0.377772    Uiso  ? C
   C555       1.0     0.413958     0.114387     0.359873    Uiso  ? C
   H325       1.0     0.400693     0.106190     0.356277    Uiso  ? H
   C556       1.0     0.422946     0.125959     0.345487    Uiso  ? C
   H326       1.0     0.416879     0.127892     0.330360    Uiso  ? H
   C557       1.0     0.438660     0.136604     0.351325    Uiso  ? C
   H327       1.0     0.444786     0.146076     0.340544    Uiso  ? H
   C558       1.0     0.446648     0.135295     0.369487    Uiso  ? C
   C559       1.0     0.438953     0.122279     0.382262    Uiso  ? C
   H328       1.0     0.446162     0.121245     0.396154    Uiso  ? H
   C560       1.0     0.464487     0.146535     0.373848    Uiso  ? C
   C561       1.0     0.381594     0.852340     0.441340    Uiso  ? C
   C562       1.0     0.373126     0.839219     0.456828    Uiso  ? C
   C563       1.0     0.353709     0.834051     0.454506    Uiso  ? C
   H329       1.0     0.344008     0.837549     0.443032    Uiso  ? H
   C564       1.0     0.345841     0.821949     0.468673    Uiso  ? C
   H330       1.0     0.330651     0.816177     0.467174    Uiso  ? H
   C565       1.0     0.357419     0.816267     0.485206    Uiso  ? C
   H331       1.0     0.351686     0.806935     0.496147    Uiso  ? H
   C566       1.0     0.376259     0.822670     0.488083    Uiso  ? C
   C567       1.0     0.383268     0.835068     0.473853    Uiso  ? C
   H332       1.0     0.398573     0.839193     0.474829    Uiso  ? H
   C568       1.0     0.387986     0.817081     0.504737    Uiso  ? C
   C569       1.0     0.428745     0.795569     0.559593    Uiso  ? C
   C570       1.0     0.439773     0.791737     0.577804    Uiso  ? C
   C571       1.0     0.432276     0.778465     0.590900    Uiso  ? C
   H333       1.0     0.420113     0.769228     0.586012    Uiso  ? H
   C572       1.0     0.439470     0.776199     0.610105    Uiso  ? C
   H334       1.0     0.433199     0.766997     0.620519    Uiso  ? H
   C573       1.0     0.455321     0.787347     0.615466    Uiso  ? C
   H335       1.0     0.462498     0.785546     0.628866    Uiso  ? H
   C574       1.0     0.462744     0.800936     0.602258    Uiso  ? C
   C575       1.0     0.455430     0.802995     0.583648    Uiso  ? C
   H336       1.0     0.461453     0.813775     0.574276    Uiso  ? H
   C576       1.0     0.480036     0.813171     0.607288    Uiso  ? C
   O271       1.0     0.411671     0.143275     0.567510    Uiso  ? O
   O272       1.0     0.388270     0.147086     0.590986    Uiso  ? O
   O273       1.0     0.437187     0.148935     0.593772    Uiso  ? O
   O274       1.0     0.415763     0.156848     0.617675    Uiso  ? O
   O275       1.0     0.439889     0.114316     0.601169    Uiso  ? O
   O276       1.0     0.418010     0.119529     0.625383    Uiso  ? O
   O277       1.0     0.412231     0.105897     0.576563    Uiso  ? O
   O278       1.0     0.391784     0.109592     0.602370    Uiso  ? O
   O279       1.0     0.425549     0.191216     0.462184    Uiso  ? O
   O280       1.0     0.404327     0.215753     0.456134    Uiso  ? O
   O281       1.0     0.428688     0.202790     0.500581    Uiso  ? O
   O282       1.0     0.407520     0.225657     0.492574    Uiso  ? O
   O283       1.0     0.403166     0.176065     0.505089    Uiso  ? O
   O284       1.0     0.380033     0.199078     0.500781    Uiso  ? O
   O285       1.0     0.401908     0.166412     0.471319    Uiso  ? O
   O286       1.0     0.380018     0.189925     0.462765    Uiso  ? O
   O287       1.0     0.523646     0.214163     0.537204    Uiso  ? O
   O288       1.0     0.523578     0.243900     0.552094    Uiso  ? O
   O289       1.0     0.526411     0.195730     0.569142    Uiso  ? O
   O290       1.0     0.527280     0.223952     0.585983    Uiso  ? O
   O291       1.0     0.488380     0.195766     0.572930    Uiso  ? O
   O292       1.0     0.488940     0.225436     0.587880    Uiso  ? O
   O293       1.0     0.486611     0.216698     0.540565    Uiso  ? O
   O294       1.0     0.487262     0.244395     0.558973    Uiso  ? O
   O295       1.0     0.422758     0.891644     0.407867    Uiso  ? O
   O296       1.0     0.396045     0.886760     0.388504    Uiso  ? O
   O297       1.0     0.398336     0.101976     0.434571    Uiso  ? O
   O298       1.0     0.372106     0.892197     0.415031    Uiso  ? O
   O299       1.0     0.396101     0.863638     0.445503    Uiso  ? O
   O300       1.0     0.373965     0.853936     0.424281    Uiso  ? O
   O301       1.0     0.421493     0.853199     0.417515    Uiso  ? O
   O302       1.0     0.398641     0.850559     0.395132    Uiso  ? O
   O303       1.0     0.404368     0.825822     0.509591    Uiso  ? O
   O304       1.0     0.380587     0.803509     0.516596    Uiso  ? O
   O305       1.0     0.407819     0.836581     0.544331    Uiso  ? O
   O306       1.0     0.384163     0.814813     0.553415    Uiso  ? O
   O307       1.0     0.434782     0.810307     0.549080    Uiso  ? O
   O308       1.0     0.411674     0.786636     0.555868    Uiso  ? O
   O309       1.0     0.431848     0.801551     0.513672    Uiso  ? O
   O310       1.0     0.408292     0.778599     0.520086    Uiso  ? O
   O311       1.0     0.509335     0.142301     0.390134    Uiso  ? O
   O312       1.0     0.505030     0.155423     0.360180    Uiso  ? O
   O313       1.0     0.511459     0.174174     0.405756    Uiso  ? O
   O314       1.0     0.512516     0.188797     0.376052    Uiso  ? O
   O315       1.0     0.474489     0.174968     0.409372    Uiso  ? O
   O316       1.0     0.474925     0.192181     0.382146    Uiso  ? O
   O317       1.0     0.473745     0.142737     0.390137    Uiso  ? O
   O318       1.0     0.470297     0.160916     0.362298    Uiso  ? O
   O319       1.0     0.447269     0.125087     0.563435    Uiso  ? O
   O320       1.0     0.437868     0.165344     0.487842    Uiso  ? O
   O321       1.0     0.504950     0.181718     0.539388    Uiso  ? O
   O322       1.0     0.432266     0.879301     0.445868    Uiso  ? O
   O323       1.0     0.438660     0.840310     0.522533    Uiso  ? O
   O324       1.0     0.494207     0.144516     0.424284    Uiso  ? O
   Zn61       1.0     0.427565     0.126863     0.582166    Uiso  ? Zn
   Zn62       1.0     0.400931     0.133563     0.611395    Uiso  ? Zn
   Zn63       1.0     0.417660     0.182500     0.485464    Uiso  ? Zn
   Zn64       1.0     0.391255     0.208819     0.478327    Uiso  ? Zn
   Zn65       1.0     0.505754     0.202313     0.552859    Uiso  ? Zn
   Zn66       1.0     0.508825     0.236252     0.572695    Uiso  ? Zn
   Zn67       1.0     0.412061     0.876704     0.427772    Uiso  ? Zn
   Zn68       1.0     0.381924     0.869859     0.404149    Uiso  ? Zn
   Zn69       1.0     0.421259     0.820347     0.528679    Uiso  ? Zn
   Zn70       1.0     0.394054     0.794074     0.537336    Uiso  ? Zn
   Zn71       1.0     0.491662     0.157286     0.402418    Uiso  ? Zn
   Zn72       1.0     0.491377     0.176148     0.368212    Uiso  ? Zn
   H337       1.0     0.432193     0.153411     0.494120    Uiso  ? H
   H338       1.0     0.448957     0.169927     0.495131    Uiso  ? H
   H339       1.0     0.557398     0.830929     0.490886    Uiso  ? H
   H340       1.0     0.569029     0.846991     0.503547    Uiso  ? H
   H341       1.0     0.489763     0.864679     0.575424    Uiso  ? H
   H342       1.0     0.504258     0.851530     0.564973    Uiso  ? H
   H343       1.0     0.554873     0.112063     0.568325    Uiso  ? H
   H344       1.0     0.567626     0.111080     0.548716    Uiso  ? H
   H345       1.0     0.481932     0.142245     0.431670    Uiso  ? H
   H346       1.0     0.501536     0.153266     0.432909    Uiso  ? H
   H347       1.0     0.543437     0.869216     0.433195    Uiso  ? H
   H348       1.0     0.551429     0.890815     0.437083    Uiso  ? H
   H349       1.0     0.557958     0.152734     0.465827    Uiso  ? H
   H350       1.0     0.565549     0.151002     0.486692    Uiso  ? H
   H351       1.0     0.443359     0.882216     0.438006    Uiso  ? H
   H352       1.0     0.429270     0.890586     0.454095    Uiso  ? H
   H353       1.0     0.479817     0.822477     0.457140    Uiso  ? H
   H354       1.0     0.495616     0.831923     0.443328    Uiso  ? H
   H355       1.0     0.444349     0.843386     0.536037    Uiso  ? H
   H356       1.0     0.450209     0.832845     0.517410    Uiso  ? H
   H357       1.0     0.495630     0.173770     0.546320    Uiso  ? H
   H358       1.0     0.499327     0.184305     0.525829    Uiso  ? H
   H359       1.0     0.441367     0.128446     0.551052    Uiso  ? H
   H360       1.0     0.451507     0.111790     0.562629    Uiso  ? H
   C577       1.0     0.452488     0.366313     0.105518    Uiso  ? C
   C578       1.0     0.462856     0.357524     0.121956    Uiso  ? C
   C579       1.0     0.460075     0.338498     0.127344    Uiso  ? C
   H361       1.0     0.449436     0.329989     0.120420    Uiso  ? H
   C580       1.0     0.470558     0.329748     0.142084    Uiso  ? C
   H362       1.0     0.468066     0.313926     0.145412    Uiso  ? H
   C581       1.0     0.484149     0.340307     0.152670    Uiso  ? C
   H363       1.0     0.491924     0.333492     0.164692    Uiso  ? H
   C582       1.0     0.487597     0.359450     0.147676    Uiso  ? C
   C583       1.0     0.478277     0.367713     0.130960    Uiso  ? C
   H364       1.0     0.481926     0.382990     0.127190    Uiso  ? H
   C584       1.0     0.502206     0.371122     0.159241    Uiso  ? C
   C585       1.0     0.407088     0.392014     0.106280    Uiso  ? C
   C586       1.0     0.396206     0.394048     0.123591    Uiso  ? C
   C587       1.0     0.384093     0.380383     0.131570    Uiso  ? C
   H365       1.0     0.382996     0.367292     0.123440    Uiso  ? H
   C588       1.0     0.372795     0.383513     0.147817    Uiso  ? C
   H366       1.0     0.363553     0.372162     0.153812    Uiso  ? H
   C589       1.0     0.376749     0.400750     0.158395    Uiso  ? C
   H367       1.0     0.369774     0.403191     0.171872    Uiso  ? H
   C590       1.0     0.390508     0.414482     0.151865    Uiso  ? C
   C591       1.0     0.399181     0.411546     0.133814    Uiso  ? C
   H368       1.0     0.408434     0.422745     0.129222    Uiso  ? H
   C592       1.0     0.395743     0.431404     0.163761    Uiso  ? C
   C593       1.0     0.409527     0.395761     0.856742    Uiso  ? C
   C594       1.0     0.396603     0.406611     0.843477    Uiso  ? C
   C595       1.0     0.378902     0.399295     0.837636    Uiso  ? C
   H369       1.0     0.372724     0.386171     0.843718    Uiso  ? H
   C596       1.0     0.367685     0.409387     0.823461    Uiso  ? C
   H370       1.0     0.354766     0.404040     0.818515    Uiso  ? H
   C597       1.0     0.372730     0.427602     0.816154    Uiso  ? C
   H371       1.0     0.362311     0.437099     0.808539    Uiso  ? H
   C598       1.0     0.390617     0.435014     0.821975    Uiso  ? C
   C599       1.0     0.402634     0.424519     0.835139    Uiso  ? C
   H372       1.0     0.416739     0.431451     0.840034    Uiso  ? H
   C600       1.0     0.396434     0.454902     0.814988    Uiso  ? C
   C601       1.0     0.454267     0.371080     0.855766    Uiso  ? C
   C602       1.0     0.468410     0.367245     0.839897    Uiso  ? C
   C603       1.0     0.466840     0.349664     0.829054    Uiso  ? C
   H373       1.0     0.455219     0.339888     0.831333    Uiso  ? H
   C604       1.0     0.480546     0.344786     0.814797    Uiso  ? C
   H374       1.0     0.478713     0.331421     0.807517    Uiso  ? H
   C605       1.0     0.493495     0.358392     0.809447    Uiso  ? C
   H375       1.0     0.503146     0.355051     0.797614    Uiso  ? H
   C606       1.0     0.495122     0.377039     0.818631    Uiso  ? C
   C607       1.0     0.482546     0.381035     0.834211    Uiso  ? C
   H376       1.0     0.483476     0.394899     0.842718    Uiso  ? H
   C608       1.0     0.507573     0.393073     0.810845    Uiso  ? C
   C609       1.0     0.540523     0.414786     0.201912    Uiso  ? C
   C610       1.0     0.550204     0.429310     0.214063    Uiso  ? C
   C611       1.0     0.554745     0.423980     0.233707    Uiso  ? C
   H377       1.0     0.549320     0.409904     0.239199    Uiso  ? H
   C612       1.0     0.565817     0.436661     0.246118    Uiso  ? C
   H378       1.0     0.569010     0.431515     0.260411    Uiso  ? H
   C613       1.0     0.572014     0.454406     0.238819    Uiso  ? C
   H379       1.0     0.580207     0.464463     0.248952    Uiso  ? H
   C614       1.0     0.568064     0.460488     0.219458    Uiso  ? C
   C615       1.0     0.558260     0.446582     0.207058    Uiso  ? C
   H380       1.0     0.557732     0.449735     0.192529    Uiso  ? H
   C616       1.0     0.575937     0.478764     0.211233    Uiso  ? C
   C617       1.0     0.493021     0.403868     0.195959    Uiso  ? C
   C618       1.0     0.476087     0.410160     0.207201    Uiso  ? C
   C619       1.0     0.474044     0.404162     0.226827    Uiso  ? C
   H381       1.0     0.485181     0.395051     0.232821    Uiso  ? H
   C620       1.0     0.457428     0.408979     0.236956    Uiso  ? C
   H382       1.0     0.456942     0.405650     0.252999    Uiso  ? H
   C621       1.0     0.441563     0.418635     0.227918    Uiso  ? C
   H383       1.0     0.428584     0.421488     0.236615    Uiso  ? H
   C622       1.0     0.443947     0.425829     0.208456    Uiso  ? C
   C623       1.0     0.461142     0.421820     0.198248    Uiso  ? C
   H384       1.0     0.463724     0.428066     0.183642    Uiso  ? H
   C624       1.0     0.429092     0.439630     0.199778    Uiso  ? C
   C625       1.0     0.552339     0.385207     0.160497    Uiso  ? C
   C626       1.0     0.571096     0.382376     0.150461    Uiso  ? C
   C627       1.0     0.580471     0.364094     0.151512    Uiso  ? C
   H385       1.0     0.573196     0.353012     0.159596    Uiso  ? H
   C628       1.0     0.596634     0.360220     0.140805    Uiso  ? C
   H386       1.0     0.602340     0.345843     0.142105    Uiso  ? H
   C629       1.0     0.604266     0.374202     0.128213    Uiso  ? C
   H387       1.0     0.617814     0.370871     0.120212    Uiso  ? H
   C630       1.0     0.596005     0.392513     0.126982    Uiso  ? C
   C631       1.0     0.578818     0.396896     0.137568    Uiso  ? C
   H388       1.0     0.572204     0.410802     0.135276    Uiso  ? H
   C632       1.0     0.603368     0.406675     0.113017    Uiso  ? C
   C633       1.0     0.412322     0.486721     0.207934    Uiso  ? C
   C634       1.0     0.417273     0.503321     0.220446    Uiso  ? C
   C635       1.0     0.410806     0.502839     0.239730    Uiso  ? C
   H389       1.0     0.402333     0.491531     0.245099    Uiso  ? H
   C636       1.0     0.414419     0.518522     0.251759    Uiso  ? C
   H390       1.0     0.410678     0.518814     0.265793    Uiso  ? H
   C637       1.0     0.425854     0.533874     0.244954    Uiso  ? C
   H391       1.0     0.430222     0.544384     0.256126    Uiso  ? H
   C638       1.0     0.433621     0.534096     0.226174    Uiso  ? C
   C639       1.0     0.428314     0.519091     0.213608    Uiso  ? C
   H392       1.0     0.434925     0.519107     0.198936    Uiso  ? H
   C640       1.0     0.447082     0.550140     0.220606    Uiso  ? C
   C641       1.0     0.381208     0.481822     0.168176    Uiso  ? C
   C642       1.0     0.367044     0.495525     0.158737    Uiso  ? C
   C643       1.0     0.347369     0.493865     0.164447    Uiso  ? C
   H393       1.0     0.341992     0.482581     0.173669    Uiso  ? H
   C644       1.0     0.334098     0.508241     0.158467    Uiso  ? C
   H394       1.0     0.319755     0.508406     0.165736    Uiso  ? H
   C645       1.0     0.340151     0.522292     0.145892    Uiso  ? C
   H395       1.0     0.330339     0.533929     0.143600    Uiso  ? H
   C646       1.0     0.360818     0.525009     0.139942    Uiso  ? C
   C647       1.0     0.373971     0.509917     0.146130    Uiso  ? C
   H396       1.0     0.388980     0.509884     0.141465    Uiso  ? H
   C648       1.0     0.367228     0.541626     0.128324    Uiso  ? C
   C649       1.0     0.627157     0.450820     0.120338    Uiso  ? C
   C650       1.0     0.634084     0.462083     0.137367    Uiso  ? C
   C651       1.0     0.653406     0.462021     0.142213    Uiso  ? C
   H397       1.0     0.665083     0.456155     0.133582    Uiso  ? H
   C652       1.0     0.658782     0.472766     0.158679    Uiso  ? C
   H398       1.0     0.674260     0.473107     0.160703    Uiso  ? H
   C653       1.0     0.646017     0.483279     0.170224    Uiso  ? C
   H399       1.0     0.650980     0.490982     0.183188    Uiso  ? H
   C654       1.0     0.625764     0.483053     0.165484    Uiso  ? C
   C655       1.0     0.620237     0.472664     0.148611    Uiso  ? C
   H400       1.0     0.604807     0.470955     0.145363    Uiso  ? H
   C656       1.0     0.611620     0.493468     0.177253    Uiso  ? C
   C657       1.0     0.606594     0.413543     0.862767    Uiso  ? C
   C658       1.0     0.600652     0.402865     0.844639    Uiso  ? C
   C659       1.0     0.613258     0.390072     0.834084    Uiso  ? C
   H401       1.0     0.626800     0.386534     0.841323    Uiso  ? H
   C660       1.0     0.607240     0.381305     0.816583    Uiso  ? C
   H402       1.0     0.616534     0.370323     0.809918    Uiso  ? H
   C661       1.0     0.588752     0.386669     0.809248    Uiso  ? C
   H403       1.0     0.584105     0.378309     0.796152    Uiso  ? H
   C662       1.0     0.575986     0.399422     0.819132    Uiso  ? C
   C663       1.0     0.581790     0.406480     0.837532    Uiso  ? C
   H404       1.0     0.572809     0.416913     0.844986    Uiso  ? H
   C664       1.0     0.557638     0.406301     0.810769    Uiso  ? C
   C665       1.0     0.499144     0.433606     0.778776    Uiso  ? C
   C666       1.0     0.480985     0.440571     0.769871    Uiso  ? C
   C667       1.0     0.475768     0.435694     0.750792    Uiso  ? C
   H405       1.0     0.485222     0.426936     0.742678    Uiso  ? H
   C668       1.0     0.458149     0.441769     0.743550    Uiso  ? C
   H406       1.0     0.453338     0.434940     0.729933    Uiso  ? H
   C669       1.0     0.445526     0.452727     0.754435    Uiso  ? C
   H407       1.0     0.431366     0.455723     0.747540    Uiso  ? H
   C670       1.0     0.449530     0.457893     0.773358    Uiso  ? C
   C671       1.0     0.468004     0.451911     0.781323    Uiso  ? C
   H408       1.0     0.472492     0.457693     0.794894    Uiso  ? H
   C672       1.0     0.435176     0.467898     0.785135    Uiso  ? C
   O325       1.0     0.453809     0.385198     0.102056    Uiso  ? O
   O326       1.0     0.438591     0.355404     0.897781    Uiso  ? O
   O327       1.0     0.420270     0.405037     0.100492    Uiso  ? O
   O328       1.0     0.407320     0.373336     0.898724    Uiso  ? O
   O329       1.0     0.424060     0.405155     0.864557    Uiso  ? O
   O330       1.0     0.406027     0.377507     0.861627    Uiso  ? O
   O331       1.0     0.456804     0.387104     0.865478    Uiso  ? O
   O332       1.0     0.439441     0.359210     0.859441    Uiso  ? O
   O333       1.0     0.533208     0.420817     0.185370    Uiso  ? O
   O334       1.0     0.538775     0.396331     0.206357    Uiso  ? O
   O335       1.0     0.498147     0.414233     0.180509    Uiso  ? O
   O336       1.0     0.503892     0.389002     0.200887    Uiso  ? O
   O337       1.0     0.505229     0.389433     0.154779    Uiso  ? O
   O338       1.0     0.509963     0.364359     0.175017    Uiso  ? O
   O339       1.0     0.542706     0.400396     0.155976    Uiso  ? O
   O340       1.0     0.546226     0.373414     0.174292    Uiso  ? O
   O341       1.0     0.419939     0.484957     0.191315    Uiso  ? O
   O342       1.0     0.399600     0.474444     0.213880    Uiso  ? O
   O343       1.0     0.398550     0.478813     0.160464    Uiso  ? O
   O344       1.0     0.376287     0.471998     0.183419    Uiso  ? O
   O345       1.0     0.410565     0.442547     0.159607    Uiso  ? O
   O346       1.0     0.386968     0.434706     0.180320    Uiso  ? O
   O347       1.0     0.433485     0.451647     0.185626    Uiso  ? O
   O348       1.0     0.411366     0.440063     0.207873    Uiso  ? O
   O349       1.0     0.610660     0.455667     0.111976    Uiso  ? O
   O350       1.0     0.638075     0.437469     0.113399    Uiso  ? O
   O351       1.0     0.593053     0.422179     0.108791    Uiso  ? O
   O352       1.0     0.620549     0.404924     0.105666    Uiso  ? O
   O353       1.0     0.594618     0.425202     0.872045    Uiso  ? O
   O354       1.0     0.624565     0.411780     0.868876    Uiso  ? O
   O355       1.0     0.613173     0.457999     0.876272    Uiso  ? O
   O356       1.0     0.643664     0.444477     0.878318    Uiso  ? O
   O357       1.0     0.547309     0.419533     0.819563    Uiso  ? O
   O358       1.0     0.553020     0.399505     0.793946    Uiso  ? O
   O359       1.0     0.510625     0.408712     0.820400    Uiso  ? O
   O360       1.0     0.515391     0.389969     0.793814    Uiso  ? O
   O361       1.0     0.503832     0.438540     0.796747    Uiso  ? O
   O362       1.0     0.508313     0.419620     0.770608    Uiso  ? O
   O363       1.0     0.538979     0.447802     0.803107    Uiso  ? O
   O364       1.0     0.545694     0.430438     0.775069    Uiso  ? O
   O365       1.0     0.582510     0.530436     0.173492    Uiso  ? O
   O366       1.0     0.603353     0.535249     0.198643    Uiso  ? O
   O367       1.0     0.558677     0.522318     0.197945    Uiso  ? O
   O368       1.0     0.578352     0.522697     0.223795    Uiso  ? O
   O369       1.0     0.567849     0.485112     0.195389    Uiso  ? O
   O370       1.0     0.589756     0.488453     0.219607    Uiso  ? O
   O371       1.0     0.593895     0.494959     0.170833    Uiso  ? O
   O372       1.0     0.617011     0.501149     0.194168    Uiso  ? O
   O373       1.0     0.453894     0.421274     0.885716    Uiso  ? O
   O374       1.0     0.516410     0.428155     0.148186    Uiso  ? O
   O375       1.0     0.435930     0.476660     0.155724    Uiso  ? O
   O376       1.0     0.575982     0.454731     0.894767    Uiso  ? O
   O377       1.0     0.518878     0.443028     0.835168    Uiso  ? O
   O378       1.0     0.555780     0.504002     0.163570    Uiso  ? O
   Zn73       1.0     0.440625     0.397621     0.884216    Uiso  ? Zn
   Zn74       1.0     0.421220     0.363438     0.878951    Uiso  ? Zn
   Zn75       1.0     0.519518     0.408000     0.166392    Uiso  ? Zn
   Zn76       1.0     0.525871     0.378776     0.191261    Uiso  ? Zn
   Zn77       1.0     0.416930     0.466010     0.172787    Uiso  ? Zn
   Zn78       1.0     0.390171     0.454957     0.198530    Uiso  ? Zn
   Zn79       1.0     0.600168     0.441497     0.892925    Uiso  ? Zn
   Zn80       1.0     0.633565     0.422287     0.891943    Uiso  ? Zn
   Zn81       1.0     0.523300     0.429487     0.812221    Uiso  ? Zn
   Zn82       1.0     0.531391     0.408359     0.780925    Uiso  ? Zn
   Zn83       1.0     0.573571     0.506698     0.182469    Uiso  ? Zn
   Zn84       1.0     0.599227     0.511708     0.211278    Uiso  ? Zn
   C673       1.0     0.536452     0.632359     0.895780    Uiso  ? C
   C674       1.0     0.525393     0.640711     0.879689    Uiso  ? C
   C675       1.0     0.526579     0.660597     0.875851    Uiso  ? C
   H409       1.0     0.535031     0.670107     0.884872    Uiso  ? H
   C676       1.0     0.516893     0.668206     0.859515    Uiso  ? C
   H410       1.0     0.516387     0.683494     0.857774    Uiso  ? H
   C677       1.0     0.504612     0.656228     0.848897    Uiso  ? C
   H411       1.0     0.494664     0.662377     0.838149    Uiso  ? H
   C678       1.0     0.503363     0.636459     0.852633    Uiso  ? C
   C679       1.0     0.514809     0.628298     0.866718    Uiso  ? C
   H412       1.0     0.513652     0.612546     0.868921    Uiso  ? H
   C680       1.0     0.492085     0.623651     0.839882    Uiso  ? C
   C681       1.0     0.582320     0.608880     0.891173    Uiso  ? C
   C682       1.0     0.596686     0.603225     0.875833    Uiso  ? C
   C683       1.0     0.612718     0.616079     0.872236    Uiso  ? C
   H413       1.0     0.615509     0.629580     0.879444    Uiso  ? H
   C684       1.0     0.625889     0.611918     0.857081    Uiso  ? C
   H414       1.0     0.639641     0.620032     0.855293    Uiso  ? H
   C685       1.0     0.622697     0.595369     0.845602    Uiso  ? C
   H415       1.0     0.633206     0.592228     0.834467    Uiso  ? H
   C686       1.0     0.607032     0.583311     0.848522    Uiso  ? C
   C687       1.0     0.594155     0.587210     0.863891    Uiso  ? C
   H416       1.0     0.580915     0.579595     0.865310    Uiso  ? H
   C688       1.0     0.601110     0.568133     0.834575    Uiso  ? C
   C689       1.0     0.582932     0.599290     0.140875    Uiso  ? C
   C690       1.0     0.595036     0.590128     0.155397    Uiso  ? C
   C691       1.0     0.610762     0.599882     0.163959    Uiso  ? C
   H417       1.0     0.614528     0.613886     0.160386    Uiso  ? H
   C692       1.0     0.622159     0.589421     0.178287    Uiso  ? C
   H418       1.0     0.634752     0.596306     0.183856    Uiso  ? H
   C693       1.0     0.616659     0.570700     0.183463    Uiso  ? C
   H419       1.0     0.625507     0.563207     0.194321    Uiso  ? H
   C694       1.0     0.600155     0.562018     0.176666    Uiso  ? C
   C695       1.0     0.589826     0.571179     0.162097    Uiso  ? C
   H420       1.0     0.575972     0.564710     0.157593    Uiso  ? H
   C696       1.0     0.594905     0.542069     0.182983    Uiso  ? C
   C697       1.0     0.537895     0.626712     0.144343    Uiso  ? C
   C698       1.0     0.525949     0.630134     0.161071    Uiso  ? C
   C699       1.0     0.527270     0.647415     0.171499    Uiso  ? C
   H421       1.0     0.536176     0.659256     0.167974    Uiso  ? H
   C700       1.0     0.515371     0.651310     0.187818    Uiso  ? C
   H422       1.0     0.515478     0.664131     0.196120    Uiso  ? H
   C701       1.0     0.502100     0.636862     0.194856    Uiso  ? C
   H423       1.0     0.492485     0.641398     0.206897    Uiso  ? H
   C702       1.0     0.500568     0.618999     0.184485    Uiso  ? C
   C703       1.0     0.512038     0.615968     0.167818    Uiso  ? C
   H424       1.0     0.512435     0.602066     0.161040    Uiso  ? H
   C704       1.0     0.488306     0.602749     0.192423    Uiso  ? C
   C705       1.0     0.455061     0.579529     0.797438    Uiso  ? C
   C706       1.0     0.444401     0.566288     0.783996    Uiso  ? C
   C707       1.0     0.439014     0.571137     0.764572    Uiso  ? C
   H425       1.0     0.443371     0.585050     0.759072    Uiso  ? H
   C708       1.0     0.428948     0.557985     0.752566    Uiso  ? C
   H426       1.0     0.425619     0.562179     0.737612    Uiso  ? H
   C709       1.0     0.423239     0.539586     0.759263    Uiso  ? C
   H427       1.0     0.416363     0.529920     0.749106    Uiso  ? H
   C710       1.0     0.427958     0.534338     0.778618    Uiso  ? C
   C711       1.0     0.438710     0.547360     0.790228    Uiso  ? C
   H428       1.0     0.441217     0.542705     0.804645    Uiso  ? H
   C712       1.0     0.420436     0.516322     0.787039    Uiso  ? C
   C713       1.0     0.502994     0.594629     0.800277    Uiso  ? C
   C714       1.0     0.522058     0.591593     0.790859    Uiso  ? C
   C715       1.0     0.527855     0.604045     0.775997    Uiso  ? C
   H429       1.0     0.518331     0.615383     0.772068    Uiso  ? H
   C716       1.0     0.546422     0.603274     0.768884    Uiso  ? C
   H430       1.0     0.552359     0.613443     0.758600    Uiso  ? H
   C717       1.0     0.558887     0.588054     0.774679    Uiso  ? C
   H431       1.0     0.572653     0.587054     0.768007    Uiso  ? H
   C718       1.0     0.552931     0.575520     0.789354    Uiso  ? C
   C719       1.0     0.534130     0.577072     0.796685    Uiso  ? C
   H432       1.0     0.530603     0.568793     0.808643    Uiso  ? H
   C720       1.0     0.567205     0.561387     0.798359    Uiso  ? C
   C721       1.0     0.441399     0.610684     0.834958    Uiso  ? C
   C722       1.0     0.422600     0.614077     0.844606    Uiso  ? C
   C723       1.0     0.410282     0.627938     0.836756    Uiso  ? C
   H433       1.0     0.415102     0.637450     0.825529    Uiso  ? H
   C724       1.0     0.391788     0.631340     0.844298    Uiso  ? C
   H434       1.0     0.382014     0.642215     0.838235    Uiso  ? H
   C725       1.0     0.385877     0.618787     0.859966    Uiso  ? C
   H435       1.0     0.370884     0.617168     0.864505    Uiso  ? H
   C726       1.0     0.398142     0.604978     0.867979    Uiso  ? C
   C727       1.0     0.417094     0.602937     0.861064    Uiso  ? C
   H436       1.0     0.427651     0.593439     0.866809    Uiso  ? H
   C728       1.0     0.391319     0.591375     0.882544    Uiso  ? C
   C729       1.0     0.581805     0.510765     0.793831    Uiso  ? C
   C730       1.0     0.576751     0.493751     0.781999    Uiso  ? C
   C731       1.0     0.580774     0.494513     0.761764    Uiso  ? C
   H437       1.0     0.590569     0.505070     0.756018    Uiso  ? H
   C732       1.0     0.577062     0.478018     0.751442    Uiso  ? C
   H438       1.0     0.582369     0.477179     0.737179    Uiso  ? H
   C733       1.0     0.567218     0.462415     0.758410    Uiso  ? C
   H439       1.0     0.564102     0.449988     0.749588    Uiso  ? H
   C734       1.0     0.560594     0.462449     0.778432    Uiso  ? C
   C735       1.0     0.565544     0.478783     0.789816    Uiso  ? C
   H440       1.0     0.562952     0.479794     0.804278    Uiso  ? H
   C736       1.0     0.547328     0.446775     0.785815    Uiso  ? C
   C737       1.0     0.614409     0.516544     0.831511    Uiso  ? C
   C738       1.0     0.629484     0.503626     0.839248    Uiso  ? C
   C739       1.0     0.649295     0.504378     0.833560    Uiso  ? C
   H441       1.0     0.655428     0.514691     0.824175    Uiso  ? H
   C740       1.0     0.663071     0.491444     0.840196    Uiso  ? C
   H442       1.0     0.678022     0.493223     0.835248    Uiso  ? H
   C741       1.0     0.658174     0.477271     0.853952    Uiso  ? C
   H443       1.0     0.669459     0.469316     0.860904    Uiso  ? H
   C742       1.0     0.638480     0.473925     0.858756    Uiso  ? C
   C743       1.0     0.624436     0.488131     0.851957    Uiso  ? C
   H444       1.0     0.608669     0.485264     0.854263    Uiso  ? H
   C744       1.0     0.631537     0.457165     0.871439    Uiso  ? C
   C745       1.0     0.368620     0.546890     0.878483    Uiso  ? C
   C746       1.0     0.362864     0.538380     0.859733    Uiso  ? C
   C747       1.0     0.344444     0.541967     0.851723    Uiso  ? C
   H445       1.0     0.334641     0.552119     0.857829    Uiso  ? H
   C748       1.0     0.338633     0.531643     0.835698    Uiso  ? C
   H446       1.0     0.324611     0.534586     0.829257    Uiso  ? H
   C749       1.0     0.350435     0.518007     0.826391    Uiso  ? C
   H447       1.0     0.344947     0.510850     0.813586    Uiso  ? H
   C750       1.0     0.369131     0.515503     0.833517    Uiso  ? C
   C751       1.0     0.375603     0.524774     0.850561    Uiso  ? C
   H448       1.0     0.390428     0.522234     0.855977    Uiso  ? H
   C752       1.0     0.382912     0.502627     0.822143    Uiso  ? C
   C753       1.0     0.390459     0.585517     0.135490    Uiso  ? C
   C754       1.0     0.398155     0.595779     0.152575    Uiso  ? C
   C755       1.0     0.387989     0.611633     0.161052    Uiso  ? C
   H449       1.0     0.374310     0.617064     0.155172    Uiso  ? H
   C756       1.0     0.395187     0.621386     0.177904    Uiso  ? C
   H450       1.0     0.389021     0.634164     0.183011    Uiso  ? H
   C757       1.0     0.412000     0.614109     0.187406    Uiso  ? C
   H451       1.0     0.416708     0.619830     0.200632    Uiso  ? H
   C758       1.0     0.421364     0.596975     0.180092    Uiso  ? C
   C759       1.0     0.414785     0.589658     0.161964    Uiso  ? C
   H452       1.0     0.423660     0.577691     0.155424    Uiso  ? H
   C760       1.0     0.438038     0.588792     0.190202    Uiso  ? C
   C761       1.0     0.496825     0.561805     0.221291    Uiso  ? C
   C762       1.0     0.515479     0.555802     0.230621    Uiso  ? C
   C763       1.0     0.517941     0.557023     0.251168    Uiso  ? C
   H453       1.0     0.505344     0.562300     0.260434    Uiso  ? H
   C764       1.0     0.535379     0.550764     0.258829    Uiso  ? C
   H454       1.0     0.537363     0.553762     0.273535    Uiso  ? H
   C765       1.0     0.550567     0.543792     0.247209    Uiso  ? C
   H455       1.0     0.563260     0.538850     0.254496    Uiso  ? H
   C766       1.0     0.547148     0.539280     0.227665    Uiso  ? C
   C767       1.0     0.529095     0.544886     0.218897    Uiso  ? C
   H456       1.0     0.525157     0.540458     0.204856    Uiso  ? H
   C768       1.0     0.562047     0.527849     0.215841    Uiso  ? C
   O379       1.0     0.536989     0.614086     0.897571    Uiso  ? O
   O380       1.0     0.549770     0.642779     0.103717    Uiso  ? O
   O381       1.0     0.568766     0.596627     0.897607    Uiso  ? O
   O382       1.0     0.583283     0.625259     0.899412    Uiso  ? O
   O383       1.0     0.567919     0.590172     0.133426    Uiso  ? O
   O384       1.0     0.585935     0.617914     0.135590    Uiso  ? O
   O385       1.0     0.535931     0.611117     0.134567    Uiso  ? O
   O386       1.0     0.553375     0.636986     0.141158    Uiso  ? O
   O387       1.0     0.462064     0.572954     0.814521    Uiso  ? O
   O388       1.0     0.458721     0.597348     0.792531    Uiso  ? O
   O389       1.0     0.498623     0.586178     0.816743    Uiso  ? O
   O390       1.0     0.491750     0.608841     0.793868    Uiso  ? O
   O391       1.0     0.488397     0.605622     0.845697    Uiso  ? O
   O392       1.0     0.484717     0.629223     0.823091    Uiso  ? O
   O393       1.0     0.453039     0.596900     0.841718    Uiso  ? O
   O394       1.0     0.446809     0.620357     0.819840    Uiso  ? O
   O395       1.0     0.571617     0.513707     0.810092    Uiso  ? O
   O396       1.0     0.595648     0.523388     0.788225    Uiso  ? O
   O397       1.0     0.596640     0.517042     0.837543    Uiso  ? O
   O398       1.0     0.619378     0.527945     0.816649    Uiso  ? O
   O399       1.0     0.587864     0.555017     0.838586    Uiso  ? O
   O400       1.0     0.610328     0.565937     0.817794    Uiso  ? O
   O401       1.0     0.561476     0.549648     0.812061    Uiso  ? O
   O402       1.0     0.584923     0.559667     0.791422    Uiso  ? O
   O403       1.0     0.386669     0.545363     0.884920    Uiso  ? O
   O404       1.0     0.356862     0.559346     0.886759    Uiso  ? O
   O405       1.0     0.402827     0.577702     0.889784    Uiso  ? O
   O406       1.0     0.373321     0.591925     0.888287    Uiso  ? O
   O407       1.0     0.401725     0.573073     0.127698    Uiso  ? O
   O408       1.0     0.373779     0.590680     0.127407    Uiso  ? O
   O409       1.0     0.384503     0.541346     0.122421    Uiso  ? O
   O410       1.0     0.355574     0.555646     0.123509    Uiso  ? O
   O411       1.0     0.450268     0.577299     0.181699    Uiso  ? O
   O412       1.0     0.441807     0.593915     0.207754    Uiso  ? O
   O413       1.0     0.486448     0.586008     0.183260    Uiso  ? O
   O414       1.0     0.478626     0.605706     0.208499    Uiso  ? O
   O415       1.0     0.492166     0.555904     0.203568    Uiso  ? O
   O416       1.0     0.485555     0.573983     0.230492    Uiso  ? O
   O417       1.0     0.456807     0.547704     0.204464    Uiso  ? O
   O418       1.0     0.449837     0.565834     0.231396    Uiso  ? O
   O419       1.0     0.411929     0.463511     0.822401    Uiso  ? O
   O420       1.0     0.386928     0.463076     0.800732    Uiso  ? O
   O421       1.0     0.439871     0.474098     0.802487    Uiso  ? O
   O422       1.0     0.417621     0.471667     0.777666    Uiso  ? O
   O423       1.0     0.428018     0.509210     0.802789    Uiso  ? O
   O424       1.0     0.406043     0.506666     0.779189    Uiso  ? O
   O425       1.0     0.400912     0.500455     0.828848    Uiso  ? O
   O426       1.0     0.379385     0.497102     0.804214    Uiso  ? O
   O427       1.0     0.536041     0.579733     0.108866    Uiso  ? O
   O428       1.0     0.480094     0.568119     0.847797    Uiso  ? O
   O429       1.0     0.558983     0.527296     0.844571    Uiso  ? O
   O430       1.0     0.419958     0.545745     0.103802    Uiso  ? O
   O431       1.0     0.473738     0.552290     0.167091    Uiso  ? O
   O432       1.0     0.440410     0.491741     0.837130    Uiso  ? O
   Zn85       1.0     0.550373     0.601109     0.114579    Uiso  ? Zn
   Zn86       1.0     0.570162     0.633777     0.120357    Uiso  ? Zn
   Zn87       1.0     0.475832     0.588986     0.831119    Uiso  ? Zn
   Zn88       1.0     0.468967     0.617421     0.805899    Uiso  ? Zn
   Zn89       1.0     0.577529     0.533255     0.827522    Uiso  ? Zn
   Zn90       1.0     0.604788     0.544760     0.801864    Uiso  ? Zn
   Zn91       1.0     0.397223     0.558415     0.105634    Uiso  ? Zn
   Zn92       1.0     0.362275     0.576948     0.106180    Uiso  ? Zn
   Zn93       1.0     0.471329     0.565522     0.190435    Uiso  ? Zn
   Zn94       1.0     0.463387     0.587021     0.221830    Uiso  ? Zn
   Zn95       1.0     0.422786     0.487785     0.816680    Uiso  ? Zn
   Zn96       1.0     0.396508     0.484455     0.787578    Uiso  ? Zn
   H457       1.0     0.475642     0.556679     0.841075    Uiso  ? H
   H458       1.0     0.493771     0.567005     0.848276    Uiso  ? H
   H459       1.0     0.530152     0.433263     0.145657    Uiso  ? H
   H460       1.0     0.512769     0.423723     0.134883    Uiso  ? H
   H461       1.0     0.550168     0.517152     0.161148    Uiso  ? H
   H462       1.0     0.545106     0.496645     0.168078    Uiso  ? H
   H463       1.0     0.573439     0.459420     0.881081    Uiso  ? H
   H464       1.0     0.578824     0.467154     0.101452    Uiso  ? H
   H465       1.0     0.434591     0.499127     0.847947    Uiso  ? H
   H466       1.0     0.443370     0.478288     0.842220    Uiso  ? H
   H467       1.0     0.454320     0.426730     0.872558    Uiso  ? H
   H468       1.0     0.443817     0.430420     0.891747    Uiso  ? H
   H469       1.0     0.518280     0.456922     0.832510    Uiso  ? H
   H470       1.0     0.529558     0.440396     0.844513    Uiso  ? H
   H471       1.0     0.417582     0.531116     0.101360    Uiso  ? H
   H472       1.0     0.427281     0.548928     0.892432    Uiso  ? H
   H473       1.0     0.438714     0.490142     0.159397    Uiso  ? H
   H474       1.0     0.429257     0.476792     0.142970    Uiso  ? H
   H475       1.0     0.484122     0.543279     0.171122    Uiso  ? H
   H476       1.0     0.463011     0.544218     0.161859    Uiso  ? H
   H477       1.0     0.546554     0.528275     0.836672    Uiso  ? H
   H478       1.0     0.558214     0.537882     0.854862    Uiso  ? H
   H479       1.0     0.522473     0.578564     0.114245    Uiso  ? H
   H480       1.0     0.542745     0.569413     0.116657    Uiso  ? H
   C769       1.0     0.520640     0.356832     0.226536    Uiso  ? C
   C770       1.0     0.528532     0.340345     0.234738    Uiso  ? C
   C771       1.0     0.542279     0.344966     0.207442    Uiso  ? C
   N1         1.0     0.529481     0.359483     0.209235    Uiso  ? N
   H481       1.0     0.510885     0.366924     0.233101    Uiso  ? H
   H482       1.0     0.526836     0.335305     0.249274    Uiso  ? H
   H483       1.0     0.551149     0.342849     0.195053    Uiso  ? H
   N2         1.0     0.542460     0.332954     0.222810    Uiso  ? N
   C772       1.0     0.555417     0.316572     0.225251    Uiso  ? C
   H484       1.0     0.560044     0.311224     0.211587    Uiso  ? H
   H485       1.0     0.568379     0.321986     0.232824    Uiso  ? H
   C773       1.0     0.545086     0.300965     0.236330    Uiso  ? C
   C774       1.0     0.552502     0.296037     0.254786    Uiso  ? C
   C775       1.0     0.529717     0.290379     0.229040    Uiso  ? C
   C776       1.0     0.545290     0.280113     0.264598    Uiso  ? C
   H486       1.0     0.564319     0.304169     0.260770    Uiso  ? H
   C777       1.0     0.522340     0.274929     0.238738    Uiso  ? C
   H487       1.0     0.523485     0.294662     0.214636    Uiso  ? H
   C778       1.0     0.529291     0.270113     0.256988    Uiso  ? C
   H488       1.0     0.551844     0.276341     0.278173    Uiso  ? H
   H489       1.0     0.509621     0.268491     0.232494    Uiso  ? H
   C779       1.0     0.521523     0.252635     0.266739    Uiso  ? C
   C780       1.0     0.502039     0.247929     0.265392    Uiso  ? C
   C781       1.0     0.534097     0.240359     0.277046    Uiso  ? C
   C782       1.0     0.494288     0.231797     0.275608    Uiso  ? C
   H490       1.0     0.491860     0.256946     0.256539    Uiso  ? H
   C783       1.0     0.526560     0.222741     0.285109    Uiso  ? C
   H491       1.0     0.549701     0.241997     0.279242    Uiso  ? H
   C784       1.0     0.506683     0.218950     0.284700    Uiso  ? C
   H492       1.0     0.478595     0.228788     0.275950    Uiso  ? H
   H493       1.0     0.534889     0.212873     0.292022    Uiso  ? H
   C785       1.0     0.499573     0.199931     0.293974    Uiso  ? C
   H494       1.0     0.486910     0.193422     0.286218    Uiso  ? H
   H495       1.0     0.510592     0.188006     0.290437    Uiso  ? H
   N3         1.0     0.495587     0.201227     0.314882    Uiso  ? N
   C786       1.0     0.484056     0.215035     0.324572    Uiso  ? C
   C787       1.0     0.499093     0.186825     0.327854    Uiso  ? C
   C788       1.0     0.480267     0.207420     0.343081    Uiso  ? C
   H496       1.0     0.478945     0.228095     0.318471    Uiso  ? H
   H497       1.0     0.510105     0.174875     0.325344    Uiso  ? H
   H498       1.0     0.470590     0.214684     0.353914    Uiso  ? H
   N4         1.0     0.490654     0.190313     0.345131    Uiso  ? N
   C789       1.0     0.479733     0.727771     0.406642    Uiso  ? C
   C790       1.0     0.487512     0.711448     0.397173    Uiso  ? C
   C791       1.0     0.508386     0.735069     0.398039    Uiso  ? C
   N5         1.0     0.492726     0.742212     0.407359    Uiso  ? N
   H499       1.0     0.465532     0.728239     0.413288    Uiso  ? H
   H500       1.0     0.480599     0.699127     0.393389    Uiso  ? H
   H501       1.0     0.521656     0.743079     0.397466    Uiso  ? H
   N6         1.0     0.505828     0.716126     0.391530    Uiso  ? N
   C792       1.0     0.519819     0.702504     0.382280    Uiso  ? C
   H502       1.0     0.533118     0.709862     0.377773    Uiso  ? H
   H503       1.0     0.524414     0.689580     0.391716    Uiso  ? H
   C793       1.0     0.510949     0.694097     0.364034    Uiso  ? C
   C794       1.0     0.500398     0.676329     0.364526    Uiso  ? C
   C795       1.0     0.514120     0.703263     0.346452    Uiso  ? C
   C796       1.0     0.493716     0.667902     0.347620    Uiso  ? C
   H504       1.0     0.497057     0.669309     0.378376    Uiso  ? H
   C797       1.0     0.504614     0.695581     0.329601    Uiso  ? C
   H505       1.0     0.522877     0.716454     0.344674    Uiso  ? H
   C798       1.0     0.494320     0.678307     0.330270    Uiso  ? C
   H506       1.0     0.488954     0.653375     0.348352    Uiso  ? H
   H507       1.0     0.507984     0.702748     0.315656    Uiso  ? H
   C799       1.0     0.486374     0.669381     0.312279    Uiso  ? C
   C800       1.0     0.468529     0.660454     0.313030    Uiso  ? C
   C801       1.0     0.496154     0.670066     0.294683    Uiso  ? C
   C802       1.0     0.458470     0.656835     0.296368    Uiso  ? C
   H508       1.0     0.461220     0.657453     0.327206    Uiso  ? H
   C803       1.0     0.486406     0.664816     0.278089    Uiso  ? C
   H509       1.0     0.511478     0.674004     0.293783    Uiso  ? H
   C804       1.0     0.466610     0.659292     0.278451    Uiso  ? C
   H510       1.0     0.443584     0.651609     0.296838    Uiso  ? H
   H511       1.0     0.494108     0.664117     0.264533    Uiso  ? H
   C805       1.0     0.456192     0.652924     0.260018    Uiso  ? C
   H512       1.0     0.440714     0.659037     0.259964    Uiso  ? H
   H513       1.0     0.464609     0.658919     0.247515    Uiso  ? H
   N7         1.0     0.455206     0.631912     0.257363    Uiso  ? N
   C806       1.0     0.451109     0.618103     0.270556    Uiso  ? C
   C807       1.0     0.457784     0.622966     0.240890    Uiso  ? C
   C808       1.0     0.455616     0.600286     0.261420    Uiso  ? C
   H514       1.0     0.446850     0.620020     0.285494    Uiso  ? H
   H515       1.0     0.460083     0.629851     0.227144    Uiso  ? H
   H516       1.0     0.452016     0.586533     0.268120    Uiso  ? H
   N8         1.0     0.459220     0.603410     0.242510    Uiso  ? N
   C809       1.0     0.505778     0.815631     0.674937    Uiso  ? C
   C810       1.0     0.511639     0.802052     0.688583    Uiso  ? C
   C811       1.0     0.518301     0.792134     0.659353    Uiso  ? C
   N9         1.0     0.510265     0.809929     0.657156    Uiso  ? N
   H517       1.0     0.497291     0.828631     0.677710    Uiso  ? H
   H518       1.0     0.510738     0.802893     0.704686    Uiso  ? H
   H519       1.0     0.524250     0.784387     0.647339    Uiso  ? H
   N10        1.0     0.519527     0.787193     0.678890    Uiso  ? N
   C812       1.0     0.531018     0.770887     0.686844    Uiso  ? C
   H520       1.0     0.540746     0.764671     0.675717    Uiso  ? H
   H521       1.0     0.539710     0.776997     0.699195    Uiso  ? H
   C813       1.0     0.518246     0.756293     0.694990    Uiso  ? C
   C814       1.0     0.512932     0.757092     0.714628    Uiso  ? C
   C815       1.0     0.511529     0.740953     0.683579    Uiso  ? C
   C816       1.0     0.500552     0.743294     0.723508    Uiso  ? C
   H522       1.0     0.517581     0.769334     0.723777    Uiso  ? H
   C817       1.0     0.500206     0.726546     0.692702    Uiso  ? C
   H523       1.0     0.515797     0.738876     0.667995    Uiso  ? H
   C818       1.0     0.494964     0.726926     0.712751    Uiso  ? C
   H524       1.0     0.497375     0.743688     0.739134    Uiso  ? H
   H525       1.0     0.496756     0.713526     0.684197    Uiso  ? H
   C819       1.0     0.483038     0.711010     0.721603    Uiso  ? C
   C820       1.0     0.469095     0.715145     0.735232    Uiso  ? C
   C821       1.0     0.484664     0.691638     0.715133    Uiso  ? C
   C822       1.0     0.457163     0.700443     0.743111    Uiso  ? C
   H526       1.0     0.466294     0.730274     0.740675    Uiso  ? H
   C823       1.0     0.473810     0.676831     0.723948    Uiso  ? C
   H527       1.0     0.494635     0.687069     0.705755    Uiso  ? H
   C824       1.0     0.461242     0.681363     0.738271    Uiso  ? C
   H528       1.0     0.444758     0.704357     0.752232    Uiso  ? H
   H529       1.0     0.476739     0.661598     0.721540    Uiso  ? H
   C825       1.0     0.447963     0.665932     0.747832    Uiso  ? C
   H530       1.0     0.432983     0.671526     0.751045    Uiso  ? H
   H531       1.0     0.445645     0.653921     0.738234    Uiso  ? H
   N11        1.0     0.456608     0.658954     0.765814    Uiso  ? N
   C826       1.0     0.459740     0.669255     0.782321    Uiso  ? C
   C827       1.0     0.459740     0.640404     0.771419    Uiso  ? C
   C828       1.0     0.465285     0.656420     0.797301    Uiso  ? C
   H532       1.0     0.456968     0.685569     0.783668    Uiso  ? H
   H533       1.0     0.456642     0.628506     0.762918    Uiso  ? H
   H534       1.0     0.470831     0.659713     0.812064    Uiso  ? H
   N12        1.0     0.464960     0.638099     0.789936    Uiso  ? N
   C829       1.0     0.539356     0.399531     0.739674    Uiso  ? C
   C830       1.0     0.541510     0.382779     0.728229    Uiso  ? C
   C831       1.0     0.538434     0.374627     0.757605    Uiso  ? C
   N13        1.0     0.537255     0.394114     0.758253    Uiso  ? N
   H535       1.0     0.540160     0.414269     0.734693    Uiso  ? H
   H536       1.0     0.543335     0.383101     0.712600    Uiso  ? H
   H537       1.0     0.536166     0.366551     0.770515    Uiso  ? H
   N14        1.0     0.540585     0.366886     0.739178    Uiso  ? N
   C832       1.0     0.549294     0.347046     0.735255    Uiso  ? C
   H538       1.0     0.565051     0.349784     0.734544    Uiso  ? H
   H539       1.0     0.546109     0.336769     0.748141    Uiso  ? H
   C833       1.0     0.541102     0.340094     0.716793    Uiso  ? C
   C834       1.0     0.551936     0.342478     0.699569    Uiso  ? C
   C835       1.0     0.523670     0.329896     0.715706    Uiso  ? C
   C836       1.0     0.544383     0.337488     0.681721    Uiso  ? C
   H540       1.0     0.567163     0.350597     0.699653    Uiso  ? H
   C837       1.0     0.515983     0.324057     0.698069    Uiso  ? C
   H541       1.0     0.515295     0.327465     0.729075    Uiso  ? H
   C838       1.0     0.526068     0.327870     0.681360    Uiso  ? C
   H542       1.0     0.551955     0.342264     0.668436    Uiso  ? H
   H543       1.0     0.501109     0.318545     0.697694    Uiso  ? H
   C839       1.0     0.517205     0.321933     0.663097    Uiso  ? C
   C840       1.0     0.517810     0.334180     0.646354    Uiso  ? C
   C841       1.0     0.508261     0.303498     0.661435    Uiso  ? C
   C842       1.0     0.507302     0.328996     0.629539    Uiso  ? C
   H544       1.0     0.523984     0.348115     0.647789    Uiso  ? H
   C843       1.0     0.497427     0.298455     0.644287    Uiso  ? C
   H545       1.0     0.510946     0.292358     0.672638    Uiso  ? H
   C844       1.0     0.497386     0.310932     0.628552    Uiso  ? C
   H546       1.0     0.508634     0.338753     0.616726    Uiso  ? H
   H547       1.0     0.490301     0.284402     0.642052    Uiso  ? H
   C845       1.0     0.489949     0.302750     0.609523    Uiso  ? C
   H548       1.0     0.474889     0.297033     0.611057    Uiso  ? H
   H549       1.0     0.490028     0.315659     0.599200    Uiso  ? H
   N15        1.0     0.502705     0.288070     0.601435    Uiso  ? N
   C846       1.0     0.521736     0.285681     0.603992    Uiso  ? C
   C847       1.0     0.495771     0.271950     0.592138    Uiso  ? C
   C848       1.0     0.527084     0.269721     0.593483    Uiso  ? C
   H550       1.0     0.531499     0.293525     0.612745    Uiso  ? H
   H551       1.0     0.481173     0.269737     0.588000    Uiso  ? H
   H552       1.0     0.540983     0.263642     0.591634    Uiso  ? H
   N16        1.0     0.510735     0.260034     0.587176    Uiso  ? N
   C849       1.0     0.625903     0.236929     0.449037    Uiso  ? C
   C850       1.0     0.643355     0.245581     0.449420    Uiso  ? C
   C851       1.0     0.646012     0.216587     0.461208    Uiso  ? C
   N17        1.0     0.627310     0.219342     0.457623    Uiso  ? N
   H553       1.0     0.612055     0.243665     0.445125    Uiso  ? H
   H554       1.0     0.648643     0.259002     0.443287    Uiso  ? H
   H555       1.0     0.650575     0.204106     0.468630    Uiso  ? H
   N18        1.0     0.656860     0.232343     0.456935    Uiso  ? N
   C852       1.0     0.678087     0.232185     0.455716    Uiso  ? C
   H556       1.0     0.683827     0.219424     0.464145    Uiso  ? H
   H557       1.0     0.681944     0.230023     0.441650    Uiso  ? H
   C853       1.0     0.686021     0.250946     0.464380    Uiso  ? C
   C854       1.0     0.689307     0.252037     0.484446    Uiso  ? C
   C855       1.0     0.687033     0.268183     0.453594    Uiso  ? C
   C856       1.0     0.695012     0.269745     0.493124    Uiso  ? C
   H558       1.0     0.688419     0.239369     0.493193    Uiso  ? H
   C857       1.0     0.692960     0.285166     0.461801    Uiso  ? C
   H559       1.0     0.683941     0.268135     0.438388    Uiso  ? H
   C858       1.0     0.695391     0.287092     0.482317    Uiso  ? C
   H560       1.0     0.698329     0.271411     0.508268    Uiso  ? H
   H561       1.0     0.692652     0.298066     0.452223    Uiso  ? H
   C859       1.0     0.701249     0.306265     0.492066    Uiso  ? C
   C860       1.0     0.713707     0.319079     0.483060    Uiso  ? C
   C861       1.0     0.693713     0.310708     0.511415    Uiso  ? C
   C862       1.0     0.718482     0.336266     0.492936    Uiso  ? C
   H562       1.0     0.720987     0.313723     0.469095    Uiso  ? H
   C863       1.0     0.697475     0.327847     0.520638    Uiso  ? C
   H563       1.0     0.684132     0.300612     0.519561    Uiso  ? H
   C864       1.0     0.709947     0.341323     0.511381    Uiso  ? C
   H564       1.0     0.728586     0.346455     0.487128    Uiso  ? H
   H565       1.0     0.691453     0.329086     0.534789    Uiso  ? H
   C865       1.0     0.715063     0.360338     0.521349    Uiso  ? C
   H566       1.0     0.710123     0.372333     0.510720    Uiso  ? H
   H567       1.0     0.708126     0.360418     0.536185    Uiso  ? H
   N19        1.0     0.735440     0.362419     0.524504    Uiso  ? N
   C866       1.0     0.747331     0.350584     0.533515    Uiso  ? C
   C867       1.0     0.746312     0.376362     0.516250    Uiso  ? C
   C868       1.0     0.765514     0.357327     0.529163    Uiso  ? C
   H568       1.0     0.742267     0.337824     0.541815    Uiso  ? H
   H569       1.0     0.740644     0.389446     0.508903    Uiso  ? H
   H570       1.0     0.778524     0.351967     0.534853    Uiso  ? H
   N20        1.0     0.765109     0.374336     0.519600    Uiso  ? N
   C869       1.0     0.623992     0.752911     0.522404    Uiso  ? C
   C870       1.0     0.639332     0.743382     0.532337    Uiso  ? C
   C871       1.0     0.643069     0.774678     0.535410    Uiso  ? C
   N21        1.0     0.626896     0.772181     0.524841    Uiso  ? N
   H571       1.0     0.611920     0.745159     0.515476    Uiso  ? H
   H572       1.0     0.641552     0.727794     0.533114    Uiso  ? H
   H573       1.0     0.648153     0.789250     0.540153    Uiso  ? H
   N22        1.0     0.651417     0.757240     0.539589    Uiso  ? N
   C872       1.0     0.668339     0.753699     0.552068    Uiso  ? C
   H574       1.0     0.675126     0.767970     0.555889    Uiso  ? H
   H575       1.0     0.663718     0.745607     0.565532    Uiso  ? H
   C873       1.0     0.682824     0.741172     0.541422    Uiso  ? C
   C874       1.0     0.685989     0.721623     0.545571    Uiso  ? C
   C875       1.0     0.692032     0.749229     0.525473    Uiso  ? C
   C876       1.0     0.696653     0.709840     0.532692    Uiso  ? C
   H576       1.0     0.680265     0.715909     0.558505    Uiso  ? H
   C877       1.0     0.703187     0.737809     0.512939    Uiso  ? C
   H577       1.0     0.689893     0.764134     0.522613    Uiso  ? H
   C878       1.0     0.705294     0.717641     0.516370    Uiso  ? C
   H578       1.0     0.698075     0.694848     0.534834    Uiso  ? H
   H579       1.0     0.710813     0.745452     0.501848    Uiso  ? H
   C879       1.0     0.717089     0.706244     0.502354    Uiso  ? C
   C880       1.0     0.712237     0.704411     0.482814    Uiso  ? C
   C881       1.0     0.733744     0.696764     0.509689    Uiso  ? C
   C882       1.0     0.723469     0.693699     0.470271    Uiso  ? C
   H580       1.0     0.701823     0.713255     0.477195    Uiso  ? H
   C883       1.0     0.744418     0.684511     0.496783    Uiso  ? C
   H581       1.0     0.736838     0.698178     0.525475    Uiso  ? H
   C884       1.0     0.739527     0.683586     0.477138    Uiso  ? C
   H582       1.0     0.719997     0.692696     0.454638    Uiso  ? H
   H583       1.0     0.758881     0.678884     0.501018    Uiso  ? H
   C885       1.0     0.752885     0.671142     0.463417    Uiso  ? C
   H584       1.0     0.747194     0.669941     0.448870    Uiso  ? H
   H585       1.0     0.765876     0.679581     0.463627    Uiso  ? H
   N23        1.0     0.756093     0.651812     0.469991    Uiso  ? N
   C886       1.0     0.741552     0.638845     0.472526    Uiso  ? C
   C887       1.0     0.772828     0.642197     0.472313    Uiso  ? C
   C888       1.0     0.751189     0.621499     0.477604    Uiso  ? C
   H586       1.0     0.725837     0.641398     0.472040    Uiso  ? H
   H587       1.0     0.786052     0.648638     0.469272    Uiso  ? H
   H588       1.0     0.745275     0.607319     0.479774    Uiso  ? H
   N24        1.0     0.770026     0.624053     0.476906    Uiso  ? N
   C889       1.0     0.217876     0.350196     0.527090    Uiso  ? C
   C890       1.0     0.236303     0.340702     0.529187    Uiso  ? C
   C891       1.0     0.240386     0.371167     0.531128    Uiso  ? C
   N25        1.0     0.220743     0.369327     0.529080    Uiso  ? N
   H589       1.0     0.204361     0.342165     0.527700    Uiso  ? H
   H590       1.0     0.236825     0.325356     0.532508    Uiso  ? H
   H591       1.0     0.246981     0.385275     0.532447    Uiso  ? H
   N26        1.0     0.250232     0.353965     0.532782    Uiso  ? N
   C892       1.0     0.267759     0.350501     0.543819    Uiso  ? C
   H592       1.0     0.274226     0.364798     0.546851    Uiso  ? H
   H593       1.0     0.264350     0.342063     0.557670    Uiso  ? H
   C893       1.0     0.281703     0.341312     0.530727    Uiso  ? C
   C894       1.0     0.286381     0.321934     0.533428    Uiso  ? C
   C895       1.0     0.289875     0.351394     0.514782    Uiso  ? C
   C896       1.0     0.298318     0.311701     0.520139    Uiso  ? C
   H594       1.0     0.280440     0.314342     0.546295    Uiso  ? H
   C897       1.0     0.302476     0.340585     0.501623    Uiso  ? C
   H595       1.0     0.287997     0.367343     0.513674    Uiso  ? H
   C898       1.0     0.305417     0.320757     0.504306    Uiso  ? C
   H596       1.0     0.300314     0.295911     0.521617    Uiso  ? H
   H597       1.0     0.309945     0.347024     0.489381    Uiso  ? H
   C899       1.0     0.317735     0.308447     0.491274    Uiso  ? C
   C900       1.0     0.315028     0.309819     0.470923    Uiso  ? C
   C901       1.0     0.332930     0.296704     0.499243    Uiso  ? C
   C902       1.0     0.326097     0.297460     0.459440    Uiso  ? C
   H598       1.0     0.304202     0.318927     0.464380    Uiso  ? H
   C903       1.0     0.344460     0.285691     0.487168    Uiso  ? C
   H599       1.0     0.337030     0.298597     0.514821    Uiso  ? H
   C904       1.0     0.340514     0.285365     0.467128    Uiso  ? C
   H600       1.0     0.324602     0.298209     0.444068    Uiso  ? H
   H601       1.0     0.357053     0.277622     0.492976    Uiso  ? H
   C905       1.0     0.353882     0.273291     0.454051    Uiso  ? C
   H602       1.0     0.346737     0.269652     0.438624    Uiso  ? H
   H603       1.0     0.368579     0.280917     0.451081    Uiso  ? H
   N27        1.0     0.356769     0.254081     0.462623    Uiso  ? N
   C906       1.0     0.342770     0.241463     0.467647    Uiso  ? C
   C907       1.0     0.374130     0.245679     0.467030    Uiso  ? C
   C908       1.0     0.351998     0.223861     0.473564    Uiso  ? C
   H604       1.0     0.327074     0.244398     0.465932    Uiso  ? H
   H605       1.0     0.388476     0.252824     0.467380    Uiso  ? H
   H606       1.0     0.345661     0.211131     0.477495    Uiso  ? H
   N28        1.0     0.371472     0.227131     0.474423    Uiso  ? N
   C909       1.0     0.246264     0.624512     0.492882    Uiso  ? C
   C910       1.0     0.255881     0.641280     0.489770    Uiso  ? C
   C911       1.0     0.226726     0.643881     0.479617    Uiso  ? C
   N29        1.0     0.228129     0.625950     0.486686    Uiso  ? N
   H607       1.0     0.252776     0.611015     0.496674    Uiso  ? H
   H608       1.0     0.270706     0.643840     0.492673    Uiso  ? H
   H609       1.0     0.213694     0.649306     0.471959    Uiso  ? H
   N30        1.0     0.244136     0.652469     0.479986    Uiso  ? N
   C912       1.0     0.247774     0.670879     0.471058    Uiso  ? C
   H610       1.0     0.253272     0.669442     0.455974    Uiso  ? H
   H611       1.0     0.233967     0.677481     0.467916    Uiso  ? H
   C913       1.0     0.260083     0.683550     0.483539    Uiso  ? C
   C914       1.0     0.252185     0.693393     0.499404    Uiso  ? C
   C915       1.0     0.279629     0.687009     0.478935    Uiso  ? C
   C916       1.0     0.263881     0.703012     0.512862    Uiso  ? C
   H612       1.0     0.236867     0.694298     0.502095    Uiso  ? H
   C917       1.0     0.290563     0.698950     0.490653    Uiso  ? C
   H613       1.0     0.286399     0.677630     0.467708    Uiso  ? H
   C918       1.0     0.283164     0.706704     0.507601    Uiso  ? C
   H614       1.0     0.257486     0.710860     0.524887    Uiso  ? H
   H615       1.0     0.305739     0.700887     0.488080    Uiso  ? H
   C919       1.0     0.295443     0.718867     0.519831    Uiso  ? C
   C920       1.0     0.305643     0.735818     0.511871    Uiso  ? C
   C921       1.0     0.298966     0.714957     0.540050    Uiso  ? C
   C922       1.0     0.315976     0.748357     0.524320    Uiso  ? C
   H616       1.0     0.304864     0.739586     0.496967    Uiso  ? H
   C923       1.0     0.311055     0.727090     0.550855    Uiso  ? C
   H617       1.0     0.293525     0.702579     0.546437    Uiso  ? H
   C924       1.0     0.317633     0.744854     0.544998    Uiso  ? C
   H618       1.0     0.321237     0.761996     0.518758    Uiso  ? H
   H619       1.0     0.312792     0.723086     0.566360    Uiso  ? H
   C925       1.0     0.327180     0.757923     0.558332    Uiso  ? C
   H620       1.0     0.320816     0.773062     0.557875    Uiso  ? H
   H621       1.0     0.325073     0.752048     0.573652    Uiso  ? H
   N31        1.0     0.347851     0.759902     0.553532    Uiso  ? N
   C926       1.0     0.362546     0.747669     0.555699    Uiso  ? C
   C927       1.0     0.355243     0.775763     0.546074    Uiso  ? C
   C928       1.0     0.379290     0.756921     0.549901    Uiso  ? C
   H622       1.0     0.362275     0.732721     0.560545    Uiso  ? H
   H623       1.0     0.346591     0.788842     0.541870    Uiso  ? H
   H624       1.0     0.394023     0.750901     0.549401    Uiso  ? H
   N32        1.0     0.374598     0.775267     0.544562    Uiso  ? N
   C929       1.0     0.618036     0.507115     0.248579    Uiso  ? C
   C930       1.0     0.632020     0.515024     0.259035    Uiso  ? C
   C931       1.0     0.631798     0.528389     0.231193    Uiso  ? C
   N33        1.0     0.617254     0.515164     0.230783    Uiso  ? N
   H625       1.0     0.608798     0.494808     0.253214    Uiso  ? H
   H626       1.0     0.635503     0.510309     0.274494    Uiso  ? H
   H627       1.0     0.634228     0.538741     0.219663    Uiso  ? H
   N34        1.0     0.640886     0.529211     0.248316    Uiso  ? N
   C932       1.0     0.655414     0.543324     0.254989    Uiso  ? C
   H628       1.0     0.661629     0.553588     0.243565    Uiso  ? H
   H629       1.0     0.647690     0.553132     0.265623    Uiso  ? H
   C933       1.0     0.672565     0.533434     0.264187    Uiso  ? C
   C934       1.0     0.676559     0.536003     0.283819    Uiso  ? C
   C935       1.0     0.684596     0.521699     0.252673    Uiso  ? C
   C936       1.0     0.693201     0.527851     0.291775    Uiso  ? C
   H630       1.0     0.666860     0.544249     0.293242    Uiso  ? H
   C937       1.0     0.701247     0.513569     0.260780    Uiso  ? C
   H631       1.0     0.682200     0.519861     0.236719    Uiso  ? H
   C938       1.0     0.704660     0.515124     0.280667    Uiso  ? C
   H632       1.0     0.695996     0.529382     0.307248    Uiso  ? H
   H633       1.0     0.711787     0.506505     0.251631    Uiso  ? H
   C939       1.0     0.721443     0.504317     0.289218    Uiso  ? C
   C940       1.0     0.722946     0.483748     0.288002    Uiso  ? C
   C941       1.0     0.736305     0.514862     0.298037    Uiso  ? C
   C942       1.0     0.737854     0.474506     0.297146    Uiso  ? C
   H634       1.0     0.712292     0.475506     0.280379    Uiso  ? H
   C943       1.0     0.751311     0.505443     0.306475    Uiso  ? C
   H635       1.0     0.736775     0.530748     0.296410    Uiso  ? H
   C944       1.0     0.752002     0.485129     0.307005    Uiso  ? C
   H636       1.0     0.736585     0.458841     0.297493    Uiso  ? H
   H637       1.0     0.762498     0.512779     0.313788    Uiso  ? H
   C945       1.0     0.768023     0.475814     0.316946    Uiso  ? C
   H638       1.0     0.766948     0.459228     0.314604    Uiso  ? H
   H639       1.0     0.782868     0.479214     0.310881    Uiso  ? H
   N35        1.0     0.766856     0.477874     0.338447    Uiso  ? N
   C946       1.0     0.751098     0.480363     0.349993    Uiso  ? C
   C947       1.0     0.782018     0.476745     0.350471    Uiso  ? C
   C948       1.0     0.756771     0.481146     0.368372    Uiso  ? C
   H640       1.0     0.736098     0.479861     0.344485    Uiso  ? H
   H641       1.0     0.797041     0.475171     0.346938    Uiso  ? H
   H642       1.0     0.747853     0.484772     0.380424    Uiso  ? H
   N36        1.0     0.776494     0.479188     0.369138    Uiso  ? N
   C949       1.0     0.374322     0.435683     0.232809    Uiso  ? C
   C950       1.0     0.356310     0.431644     0.241861    Uiso  ? C
   C951       1.0     0.351245     0.445097     0.213995    Uiso  ? C
   N37        1.0     0.370711     0.444675     0.216013    Uiso  ? N
   H643       1.0     0.388360     0.434092     0.239941    Uiso  ? H
   H644       1.0     0.355705     0.424824     0.256018    Uiso  ? H
   H645       1.0     0.343743     0.450377     0.201245    Uiso  ? H
   N38        1.0     0.342275     0.436792     0.229162    Uiso  ? N
   C952       1.0     0.320992     0.434976     0.231694    Uiso  ? C
   H646       1.0     0.314545     0.443105     0.219231    Uiso  ? H
   H647       1.0     0.316388     0.419350     0.231029    Uiso  ? H
   C953       1.0     0.315549     0.443640     0.250792    Uiso  ? C
   C954       1.0     0.309148     0.430944     0.265462    Uiso  ? C
   C955       1.0     0.315078     0.463518     0.253808    Uiso  ? C
   C956       1.0     0.300751     0.438533     0.282307    Uiso  ? C
   H648       1.0     0.311476     0.415458     0.263495    Uiso  ? H
   C957       1.0     0.307622     0.472119     0.271138    Uiso  ? C
   H649       1.0     0.320057     0.472580     0.242437    Uiso  ? H
   C958       1.0     0.299844     0.459667     0.284819    Uiso  ? C
   H650       1.0     0.292488     0.429454     0.293142    Uiso  ? H
   H651       1.0     0.305361     0.487830     0.271927    Uiso  ? H
   C959       1.0     0.290166     0.467371     0.301851    Uiso  ? C
   C960       1.0     0.298468     0.466785     0.321223    Uiso  ? C
   C961       1.0     0.273414     0.477542     0.300398    Uiso  ? C
   C962       1.0     0.289660     0.476368     0.337454    Uiso  ? C
   H652       1.0     0.311722     0.458530     0.323609    Uiso  ? H
   C963       1.0     0.264506     0.486814     0.315979    Uiso  ? C
   H653       1.0     0.265753     0.477278     0.286914    Uiso  ? H
   C964       1.0     0.273538     0.487758     0.334104    Uiso  ? C
   H654       1.0     0.295979     0.474571     0.351498    Uiso  ? H
   H655       1.0     0.251348     0.494776     0.314132    Uiso  ? H
   C965       1.0     0.264217     0.499021     0.349996    Uiso  ? C
   H656       1.0     0.275694     0.503421     0.360323    Uiso  ? H
   H657       1.0     0.255707     0.512212     0.345159    Uiso  ? H
   N39        1.0     0.251195     0.485891     0.360405    Uiso  ? N
   C966       1.0     0.253352     0.466824     0.363249    Uiso  ? C
   C967       1.0     0.235603     0.491069     0.371167    Uiso  ? C
   C968       1.0     0.239433     0.460054     0.376250    Uiso  ? C
   H658       1.0     0.265480     0.458076     0.357151    Uiso  ? H
   H659       1.0     0.230439     0.505816     0.373544    Uiso  ? H
   H660       1.0     0.238123     0.445935     0.382046    Uiso  ? H
   N40        1.0     0.228722     0.475174     0.381312    Uiso  ? N
   C969       1.0     0.219252     0.506700     0.651136    Uiso  ? C
   C970       1.0     0.231696     0.516114     0.664257    Uiso  ? C
   C971       1.0     0.231883     0.531208     0.637032    Uiso  ? C
   N41        1.0     0.218850     0.516322     0.633848    Uiso  ? N
   H661       1.0     0.210259     0.495692     0.656006    Uiso  ? H
   H662       1.0     0.235433     0.510913     0.679395    Uiso  ? H
   H663       1.0     0.234494     0.542349     0.625793    Uiso  ? H
   N42        1.0     0.238949     0.531608     0.655552    Uiso  ? N
   C972       1.0     0.251751     0.546691     0.664110    Uiso  ? C
   H664       1.0     0.255045     0.556757     0.652198    Uiso  ? H
   H665       1.0     0.244760     0.555152     0.676093    Uiso  ? H
   C973       1.0     0.270927     0.538116     0.669378    Uiso  ? C
   C974       1.0     0.274311     0.536181     0.689894    Uiso  ? C
   C975       1.0     0.283707     0.529209     0.656135    Uiso  ? C
   C976       1.0     0.291120     0.526363     0.696629    Uiso  ? C
   H666       1.0     0.263344     0.540622     0.699270    Uiso  ? H
   C977       1.0     0.301888     0.522953     0.662344    Uiso  ? C
   H667       1.0     0.281507     0.530559     0.641367    Uiso  ? H
   C978       1.0     0.305237     0.521266     0.682956    Uiso  ? C
   H668       1.0     0.293872     0.528008     0.711878    Uiso  ? H
   H669       1.0     0.313486     0.518705     0.651848    Uiso  ? H
   C979       1.0     0.323874     0.512077     0.689661    Uiso  ? C
   C980       1.0     0.331759     0.496053     0.679798    Uiso  ? C
   C981       1.0     0.331532     0.516866     0.708180    Uiso  ? C
   C982       1.0     0.347009     0.485135     0.687882    Uiso  ? C
   H670       1.0     0.326636     0.491261     0.665320    Uiso  ? H
   C983       1.0     0.347309     0.506575     0.715541    Uiso  ? C
   H671       1.0     0.325746     0.529463     0.715797    Uiso  ? H
   C984       1.0     0.354940     0.490067     0.706125    Uiso  ? C
   H672       1.0     0.352177     0.472939     0.680871    Uiso  ? H
   H673       1.0     0.354026     0.509544     0.729364    Uiso  ? H
   C985       1.0     0.372049     0.478485     0.713860    Uiso  ? C
   H674       1.0     0.373460     0.463642     0.706982    Uiso  ? H
   H675       1.0     0.385257     0.485547     0.709815    Uiso  ? H
   N43        1.0     0.371649     0.476668     0.734548    Uiso  ? N
   C986       1.0     0.357864     0.469022     0.745819    Uiso  ? C
   C987       1.0     0.385072     0.484301     0.746811    Uiso  ? C
   C988       1.0     0.364656     0.468351     0.764857    Uiso  ? C
   H676       1.0     0.344022     0.462891     0.741439    Uiso  ? H
   H677       1.0     0.397839     0.491341     0.742102    Uiso  ? H
   H678       1.0     0.356149     0.463237     0.776822    Uiso  ? H
   N44        1.0     0.380725     0.479587     0.765630    Uiso  ? N
   C989       1.0     0.644548     0.544361     0.783051    Uiso  ? C
   C990       1.0     0.654489     0.555181     0.768939    Uiso  ? C
   C991       1.0     0.625295     0.565500     0.770541    Uiso  ? C
   N45        1.0     0.626227     0.550989     0.784295    Uiso  ? N
   H679       1.0     0.650693     0.534020     0.791749    Uiso  ? H
   H680       1.0     0.669880     0.554624     0.767248    Uiso  ? H
   H681       1.0     0.613265     0.575405     0.770199    Uiso  ? H
   N46        1.0     0.642731     0.568662     0.761694    Uiso  ? N
   C992       1.0     0.647957     0.583230     0.747257    Uiso  ? C
   H682       1.0     0.634794     0.591372     0.742553    Uiso  ? H
   H683       1.0     0.657287     0.594798     0.754258    Uiso  ? H
   C993       1.0     0.658059     0.574261     0.730380    Uiso  ? C
   C994       1.0     0.678338     0.576802     0.727821    Uiso  ? C
   C995       1.0     0.646574     0.565189     0.716111    Uiso  ? C
   C996       1.0     0.686729     0.569514     0.710814    Uiso  ? C
   H684       1.0     0.688427     0.583165     0.739323    Uiso  ? H
   C997       1.0     0.655589     0.557937     0.699674    Uiso  ? C
   H685       1.0     0.630691     0.564464     0.718138    Uiso  ? H
   C998       1.0     0.675791     0.560092     0.697292    Uiso  ? C
   H686       1.0     0.703270     0.570473     0.708071    Uiso  ? H
   H687       1.0     0.646739     0.550981     0.689178    Uiso  ? H
   C999       1.0     0.684982     0.552758     0.679498    Uiso  ? C
   C1000      1.0     0.681274     0.533604     0.673343    Uiso  ? C
   C1001      1.0     0.693754     0.566411     0.667010    Uiso  ? C
   C1002      1.0     0.688787     0.527202     0.655604    Uiso  ? C
   H688       1.0     0.671787     0.523575     0.680399    Uiso  ? H
   C1003      1.0     0.701914     0.560338     0.649285    Uiso  ? C
   H689       1.0     0.695407     0.581259     0.672201    Uiso  ? H
   C1004      1.0     0.699721     0.540548     0.644416    Uiso  ? C
   H690       1.0     0.688770     0.512052     0.651330    Uiso  ? H
   H691       1.0     0.710182     0.570041     0.639879    Uiso  ? H
   C1005      1.0     0.709779     0.532583     0.625758    Uiso  ? C
   H692       1.0     0.701334     0.520571     0.619071    Uiso  ? H
   H693       1.0     0.708578     0.543821     0.614585    Uiso  ? H
   N47        1.0     0.729831     0.526568     0.628453    Uiso  ? N
   C1006      1.0     0.739623     0.524243     0.645088    Uiso  ? C
   C1007      1.0     0.743284     0.524697     0.614478    Uiso  ? C
   C1008      1.0     0.758209     0.520187     0.640908    Uiso  ? C
   H694       1.0     0.732829     0.525117     0.659601    Uiso  ? H
   H695       1.0     0.740054     0.524220     0.599535    Uiso  ? H
   H696       1.0     0.769297     0.518985     0.651683    Uiso  ? H
   N48        1.0     0.761119     0.521702     0.621400    Uiso  ? N
   C1009      1.0     0.587253     0.671938     0.109188    Uiso  ? C
   C1010      1.0     0.597596     0.686521     0.118005    Uiso  ? C
   C1011      1.0     0.594525     0.663311     0.138353    Uiso  ? C
   N49        1.0     0.584730     0.657623     0.122493    Uiso  ? N
   H697       1.0     0.582006     0.670198     0.894629    Uiso  ? H
   H698       1.0     0.598555     0.701206     0.112412    Uiso  ? H
   H699       1.0     0.595155     0.655374     0.151504    Uiso  ? H
   N50        1.0     0.602191     0.680929     0.135858    Uiso  ? N
   C1012      1.0     0.612078     0.692475     0.150220    Uiso  ? C
   H700       1.0     0.605870     0.706650     0.152673    Uiso  ? H
   H701       1.0     0.611252     0.685151     0.164918    Uiso  ? H
   C1013      1.0     0.632868     0.695416     0.143063    Uiso  ? C
   C1014      1.0     0.647883     0.681338     0.146726    Uiso  ? C
   C1015      1.0     0.638650     0.712782     0.133627    Uiso  ? C
   C1016      1.0     0.667539     0.686897     0.143029    Uiso  ? C
   H702       1.0     0.642779     0.669793     0.155238    Uiso  ? H
   C1017      1.0     0.657676     0.717242     0.128796    Uiso  ? C
   H703       1.0     0.628309     0.721690     0.126223    Uiso  ? H
   C1018      1.0     0.672685     0.704340     0.133750    Uiso  ? C
   H704       1.0     0.679072     0.677112     0.146909    Uiso  ? H
   H705       1.0     0.660505     0.730493     0.121724    Uiso  ? H
   C1019      1.0     0.692385     0.709826     0.130346    Uiso  ? C
   C1020      1.0     0.700966     0.725482     0.140391    Uiso  ? C
   C1021      1.0     0.704471     0.698762     0.117723    Uiso  ? C
   C1022      1.0     0.721036     0.729878     0.138655    Uiso  ? C
   H706       1.0     0.692402     0.731624     0.151143    Uiso  ? H
   C1023      1.0     0.724027     0.703907     0.115289    Uiso  ? C
   H707       1.0     0.697225     0.686663     0.109884    Uiso  ? H
   C1024      1.0     0.732259     0.718288     0.126374    Uiso  ? C
   H708       1.0     0.728172     0.741610     0.147114    Uiso  ? H
   H709       1.0     0.732868     0.694798     0.106861    Uiso  ? H
   C1025      1.0     0.753040     0.723215     0.122322    Uiso  ? C
   H710       1.0     0.762498     0.720985     0.135248    Uiso  ? H
   H711       1.0     0.759854     0.714834     0.110808    Uiso  ? H
   N51        1.0     0.753886     0.743822     0.116096    Uiso  ? N
   C1026      1.0     0.744180     0.753387     0.102546    Uiso  ? C
   C1027      1.0     0.768656     0.755418     0.121156    Uiso  ? C
   C1028      1.0     0.751587     0.771100     0.100379    Uiso  ? C
   H712       1.0     0.734015     0.745148     0.894594    Uiso  ? H
   H713       1.0     0.780315     0.749286     0.129327    Uiso  ? H
   H714       1.0     0.745103     0.781568     0.891590    Uiso  ? H
   N52        1.0     0.767287     0.772607     0.112207    Uiso  ? N
   C1029      1.0     0.668630     0.404691     0.879300    Uiso  ? C
   C1030      1.0     0.682792     0.392278     0.885820    Uiso  ? C
   C1031      1.0     0.662838     0.397843     0.108033    Uiso  ? C
   N53        1.0     0.655811     0.406563     0.893696    Uiso  ? N
   H715       1.0     0.666513     0.409648     0.863881    Uiso  ? H
   H716       1.0     0.696328     0.388465     0.877708    Uiso  ? H
   H717       1.0     0.655681     0.397481     0.122424    Uiso  ? H
   N54        1.0     0.678879     0.388278     0.103695    Uiso  ? N
   C1032      1.0     0.691717     0.377884     0.117212    Uiso  ? C
   H718       1.0     0.702135     0.388856     0.122939    Uiso  ? H
   H719       1.0     0.683715     0.373685     0.131166    Uiso  ? H
   C1033      1.0     0.701797     0.360730     0.108939    Uiso  ? C
   C1034      1.0     0.692337     0.343362     0.108166    Uiso  ? C
   C1035      1.0     0.719425     0.363365     0.100294    Uiso  ? C
   C1036      1.0     0.699012     0.328196     0.895745    Uiso  ? C
   H720       1.0     0.679696     0.339084     0.116874    Uiso  ? H
   C1037      1.0     0.727084     0.347578     0.888848    Uiso  ? C
   H721       1.0     0.726673     0.378433     0.101233    Uiso  ? H
   C1038      1.0     0.717231     0.330478     0.886332    Uiso  ? C
   H722       1.0     0.692128     0.313311     0.896595    Uiso  ? H
   H723       1.0     0.740700     0.349121     0.880473    Uiso  ? H
   C1039      1.0     0.725555     0.314701     0.874121    Uiso  ? C
   C1040      1.0     0.711993     0.305609     0.861453    Uiso  ? C
   C1041      1.0     0.744868     0.309365     0.876531    Uiso  ? C
   C1042      1.0     0.719325     0.289161     0.851846    Uiso  ? C
   H724       1.0     0.697541     0.309896     0.858980    Uiso  ? H
   C1043      1.0     0.751879     0.292322     0.867184    Uiso  ? C
   H725       1.0     0.755167     0.317561     0.886158    Uiso  ? H
   C1044      1.0     0.738597     0.282458     0.854929    Uiso  ? C
   H726       1.0     0.709883     0.280731     0.842859    Uiso  ? H
   H727       1.0     0.767432     0.289250     0.867137    Uiso  ? H
   C1045      1.0     0.745635     0.265472     0.843123    Uiso  ? C
   H728       1.0     0.735131     0.259546     0.833251    Uiso  ? H
   H729       1.0     0.757276     0.270766     0.833733    Uiso  ? H
   N55        1.0     0.753191     0.250270     0.855679    Uiso  ? N
   C1046      1.0     0.743704     0.242661     0.871204    Uiso  ? C
   C1047      1.0     0.770339     0.240115     0.854608    Uiso  ? C
   C1048      1.0     0.754760     0.227844     0.878640    Uiso  ? C
   H730       1.0     0.728725     0.245026     0.874598    Uiso  ? H
   H731       1.0     0.781635     0.243582     0.843899    Uiso  ? H
   H732       1.0     0.751323     0.218813     0.890748    Uiso  ? H
   N56        1.0     0.771680     0.226802     0.868401    Uiso  ? N
   C1049      1.0     0.233106     0.763464     0.141662    Uiso  ? C
   C1050      1.0     0.250455     0.753045     0.141822    Uiso  ? C
   C1051      1.0     0.248385     0.769946     0.115731    Uiso  ? C
   N57        1.0     0.231760     0.772977     0.124664    Uiso  ? N
   H733       1.0     0.223031     0.764080     0.153482    Uiso  ? H
   H734       1.0     0.256243     0.745288     0.154173    Uiso  ? H
   H735       1.0     0.251041     0.773982     0.101345    Uiso  ? H
   N58        1.0     0.260406     0.758413     0.125547    Uiso  ? N
   C1052      1.0     0.280103     0.751792     0.120005    Uiso  ? C
   H736       1.0     0.286415     0.758750     0.106621    Uiso  ? H
   H737       1.0     0.290291     0.756631     0.132105    Uiso  ? H
   C1053      1.0     0.280324     0.730322     0.115837    Uiso  ? C
   C1054      1.0     0.282404     0.717057     0.130284    Uiso  ? C
   C1055      1.0     0.278196     0.723546     0.897145    Uiso  ? C
   C1056      1.0     0.284874     0.697175     0.126353    Uiso  ? C
   H738       1.0     0.283707     0.721881     0.145396    Uiso  ? H
   C1057      1.0     0.278983     0.703733     0.893715    Uiso  ? C
   H739       1.0     0.278159     0.732525     0.883490    Uiso  ? H
   C1058      1.0     0.282353     0.690680     0.107294    Uiso  ? C
   H740       1.0     0.289627     0.688156     0.137975    Uiso  ? H
   H741       1.0     0.277581     0.698465     0.879048    Uiso  ? H
   C1059      1.0     0.284303     0.669702     0.102313    Uiso  ? C
   C1060      1.0     0.272213     0.655398     0.110461    Uiso  ? C
   C1061      1.0     0.297513     0.663540     0.888207    Uiso  ? C
   C1062      1.0     0.276111     0.635955     0.105595    Uiso  ? C
   H742       1.0     0.261643     0.658973     0.121715    Uiso  ? H
   C1063      1.0     0.301986     0.643762     0.883728    Uiso  ? C
   H743       1.0     0.304357     0.674379     0.880335    Uiso  ? H
   C1064      1.0     0.290314     0.629739     0.892031    Uiso  ? C
   H744       1.0     0.266582     0.626072     0.113793    Uiso  ? H
   H745       1.0     0.314059     0.639939     0.875029    Uiso  ? H
   C1065      1.0     0.294041     0.608340     0.887339    Uiso  ? C
   H746       1.0     0.281042     0.599231     0.889581    Uiso  ? H
   H747       1.0     0.298254     0.607056     0.872231    Uiso  ? H
   N59        1.0     0.309230     0.601496     0.900000    Uiso  ? N
   C1066      1.0     0.309342     0.599892     0.118458    Uiso  ? C
   C1067      1.0     0.326543     0.595122     0.894407    Uiso  ? C
   C1068      1.0     0.327057     0.590960     0.123937    Uiso  ? C
   H748       1.0     0.298352     0.604838     0.129146    Uiso  ? H
   H749       1.0     0.330807     0.595521     0.878749    Uiso  ? H
   H750       1.0     0.333344     0.588558     0.138482    Uiso  ? H
   N60        1.0     0.338104     0.588308     0.107940    Uiso  ? N
   C1069      1.0     0.251488     0.226459     0.881438    Uiso  ? C
   C1070      1.0     0.260212     0.243159     0.875666    Uiso  ? C
   C1071      1.0     0.229007     0.244084     0.867838    Uiso  ? C
   N61        1.0     0.232760     0.226606     0.875370    Uiso  ? N
   H751       1.0     0.258147     0.215413     0.889173    Uiso  ? H
   H752       1.0     0.274648     0.248565     0.878322    Uiso  ? H
   H753       1.0     0.214172     0.249212     0.863423    Uiso  ? H
   N62        1.0     0.245277     0.254818     0.867713    Uiso  ? N
   C1072      1.0     0.246314     0.274769     0.859325    Uiso  ? C
   H754       1.0     0.238676     0.274958     0.845529    Uiso  ? H
   H755       1.0     0.239139     0.286417     0.869403    Uiso  ? H
   C1073      1.0     0.267870     0.278983     0.855980    Uiso  ? C
   C1074      1.0     0.276006     0.296577     0.862943    Uiso  ? C
   C1075      1.0     0.279264     0.265582     0.845777    Uiso  ? C
   C1076      1.0     0.296014     0.299924     0.860046    Uiso  ? C
   H756       1.0     0.267425     0.306581     0.871140    Uiso  ? H
   C1077      1.0     0.299251     0.268727     0.844155    Uiso  ? C
   H757       1.0     0.274481     0.251776     0.840680    Uiso  ? H
   C1078      1.0     0.307630     0.286009     0.850372    Uiso  ? C
   H758       1.0     0.303420     0.312816     0.866201    Uiso  ? H
   H759       1.0     0.308776     0.257345     0.838717    Uiso  ? H
   C1079      1.0     0.329437     0.289589     0.849247    Uiso  ? C
   C1080      1.0     0.342498     0.275294     0.855858    Uiso  ? C
   C1081      1.0     0.336991     0.306983     0.842029    Uiso  ? C
   C1082      1.0     0.362832     0.278116     0.853536    Uiso  ? C
   H760       1.0     0.337634     0.263494     0.864082    Uiso  ? H
   C1083      1.0     0.356915     0.310605     0.840448    Uiso  ? C
   H761       1.0     0.325306     0.317107     0.837421    Uiso  ? H
   C1084      1.0     0.369774     0.296338     0.847027    Uiso  ? C
   H762       1.0     0.373039     0.268092     0.858415    Uiso  ? H
   H763       1.0     0.362086     0.324110     0.835001    Uiso  ? H
   C1085      1.0     0.391276     0.300303     0.846472    Uiso  ? C
   H764       1.0     0.400554     0.286639     0.848911    Uiso  ? H
   H765       1.0     0.394569     0.307011     0.832272    Uiso  ? H
   N63        1.0     0.395959     0.313570     0.861840    Uiso  ? N
   C1086      1.0     0.395839     0.310695     0.881128    Uiso  ? C
   C1087      1.0     0.403060     0.331603     0.858710    Uiso  ? C
   C1088      1.0     0.403361     0.327192     0.889687    Uiso  ? C
   H766       1.0     0.391348     0.297895     0.888689    Uiso  ? H
   H767       1.0     0.406495     0.337392     0.845365    Uiso  ? H
   H768       1.0     0.403596     0.330328     0.104638    Uiso  ? H
   N64        1.0     0.407758     0.340439     0.875814    Uiso  ? N
   C1089      1.0     0.635715     0.146708     0.628993    Uiso  ? C
   C1090      1.0     0.654726     0.146731     0.636768    Uiso  ? C
   C1091      1.0     0.654701     0.130733     0.609684    Uiso  ? C
   N65        1.0     0.636209     0.135535     0.612292    Uiso  ? N
   H769       1.0     0.623340     0.154914     0.634309    Uiso  ? H
   H770       1.0     0.659863     0.156546     0.647687    Uiso  ? H
   H771       1.0     0.659683     0.121208     0.598017    Uiso  ? H
   N66        1.0     0.666303     0.136896     0.624618    Uiso  ? N
   C1092      1.0     0.687400     0.137682     0.623830    Uiso  ? C
   H772       1.0     0.691951     0.130766     0.610218    Uiso  ? H
   H773       1.0     0.692198     0.153596     0.623618    Uiso  ? H
   C1093      1.0     0.696636     0.127685     0.640827    Uiso  ? C
   C1094      1.0     0.707365     0.138143     0.655646    Uiso  ? C
   C1095      1.0     0.693961     0.107190     0.644419    Uiso  ? C
   C1096      1.0     0.715777     0.127952     0.671710    Uiso  ? C
   H774       1.0     0.709689     0.153048     0.654572    Uiso  ? H
   C1097      1.0     0.700972     0.894855     0.660435    Uiso  ? C
   H775       1.0     0.684232     0.894585     0.634944    Uiso  ? H
   C1098      1.0     0.711082     0.108549     0.675442    Uiso  ? C
   H776       1.0     0.724078     0.136764     0.682403    Uiso  ? H
   H777       1.0     0.697985     0.879318     0.663302    Uiso  ? H
   C1099      1.0     0.715768     0.894748     0.693578    Uiso  ? C
   C1100      1.0     0.714550     0.107305     0.711380    Uiso  ? C
   C1101      1.0     0.721225     0.874854     0.693075    Uiso  ? C
   C1102      1.0     0.719141     0.893680     0.728151    Uiso  ? C
   H778       1.0     0.708297     0.120903     0.712907    Uiso  ? H
   C1103      1.0     0.726692     0.864860     0.709889    Uiso  ? C
   H779       1.0     0.723051     0.867724     0.679260    Uiso  ? H
   C1104      1.0     0.725618     0.875122     0.727695    Uiso  ? C
   H780       1.0     0.719418     0.104977     0.741556    Uiso  ? H
   H781       1.0     0.731887     0.849414     0.709023    Uiso  ? H
   C1105      1.0     0.731477     0.865637     0.746733    Uiso  ? C
   H782       1.0     0.722326     0.870779     0.759200    Uiso  ? H
   H783       1.0     0.729863     0.849648     0.745840    Uiso  ? H
   N67        1.0     0.752201     0.869949     0.749641    Uiso  ? N
   C1106      1.0     0.767339     0.863183     0.738530    Uiso  ? C
   C1107      1.0     0.760042     0.875759     0.766684    Uiso  ? C
   C1108      1.0     0.784087     0.865169     0.749760    Uiso  ? C
   H784       1.0     0.765988     0.854294     0.725598    Uiso  ? H
   H785       1.0     0.751076     0.879965     0.778844    Uiso  ? H
   H786       1.0     0.797982     0.859756     0.746083    Uiso  ? H
   N68        1.0     0.779987     0.873874     0.766389    Uiso  ? N
   C1109      1.0     0.383471     0.132611     0.649144    Uiso  ? C
   C1110      1.0     0.366182     0.136150     0.658240    Uiso  ? C
   C1111      1.0     0.365543     0.147216     0.628867    Uiso  ? C
   N69        1.0     0.382529     0.138490     0.630568    Uiso  ? N
   H787       1.0     0.396029     0.124133     0.655585    Uiso  ? H
   H788       1.0     0.361462     0.132430     0.672712    Uiso  ? H
   H789       1.0     0.359928     0.154694     0.615369    Uiso  ? H
   N70        1.0     0.354837     0.144122     0.644696    Uiso  ? N
   C1112      1.0     0.337634     0.155493     0.648185    Uiso  ? C
   H790       1.0     0.342112     0.168360     0.654622    Uiso  ? H
   H791       1.0     0.330429     0.159853     0.633780    Uiso  ? H
   C1113      1.0     0.323659     0.144199     0.659643    Uiso  ? C
   C1114      1.0     0.316889     0.126784     0.651765    Uiso  ? C
   C1115      1.0     0.318702     0.149161     0.678415    Uiso  ? C
   C1116      1.0     0.304697     0.114003     0.662013    Uiso  ? C
   H792       1.0     0.322891     0.121286     0.638926    Uiso  ? H
   C1117      1.0     0.306313     0.136467     0.688705    Uiso  ? C
   H793       1.0     0.325507     0.161172     0.687167    Uiso  ? H
   C1118      1.0     0.298434     0.119829     0.680465    Uiso  ? C
   H794       1.0     0.300428     0.896223     0.655980    Uiso  ? H
   H795       1.0     0.302485     0.140698     0.703260    Uiso  ? H
   C1119      1.0     0.287287     0.106798     0.693075    Uiso  ? C
   C1120      1.0     0.272171     0.114758     0.703930    Uiso  ? C
   C1121      1.0     0.289052     0.882434     0.693185    Uiso  ? C
   C1122      1.0     0.259633     0.102996     0.714197    Uiso  ? C
   H796       1.0     0.268886     0.130385     0.704501    Uiso  ? H
   C1123      1.0     0.276121     0.870956     0.703209    Uiso  ? C
   H797       1.0     0.299806     0.874254     0.685434    Uiso  ? H
   C1124      1.0     0.260312     0.879260     0.713811    Uiso  ? C
   H798       1.0     0.248946     0.111024     0.722858    Uiso  ? H
   H799       1.0     0.278819     0.855318     0.702412    Uiso  ? H
   C1125      1.0     0.245357     0.865791     0.724316    Uiso  ? C
   H800       1.0     0.230007     0.866297     0.719408    Uiso  ? H
   H801       1.0     0.250979     0.851028     0.723819    Uiso  ? H
   N71        1.0     0.244297     0.872381     0.745119    Uiso  ? N
   C1126      1.0     0.258923     0.877874     0.757850    Uiso  ? C
   C1127      1.0     0.227902     0.872105     0.754982    Uiso  ? C
   C1128      1.0     0.250510     0.878060     0.774910    Uiso  ? C
   H802       1.0     0.273543     0.879456     0.753407    Uiso  ? H
   H803       1.0     0.213425     0.870930     0.748787    Uiso  ? H
   H804       1.0     0.257790     0.879466     0.789216    Uiso  ? H
   N72        1.0     0.231251     0.874780     0.773945    Uiso  ? N
   C1129      1.0     0.239816     0.128199     0.227533    Uiso  ? C
   C1130      1.0     0.244937     0.131564     0.246345    Uiso  ? C
   C1131      1.0     0.214464     0.126944     0.246514    Uiso  ? C
   N73        1.0     0.220497     0.125527     0.227306    Uiso  ? N
   H805       1.0     0.248486     0.129876     0.215262    Uiso  ? H
   H806       1.0     0.259848     0.134833     0.250760    Uiso  ? H
   H807       1.0     0.199000     0.124841     0.251534    Uiso  ? H
   N74        1.0     0.230079     0.129485     0.258466    Uiso  ? N
   C1132      1.0     0.228561     0.132291     0.280163    Uiso  ? C
   H808       1.0     0.230527     0.147402     0.282685    Uiso  ? H
   H809       1.0     0.213460     0.127509     0.284440    Uiso  ? H
   C1133      1.0     0.243217     0.119982     0.290213    Uiso  ? C
   C1134      1.0     0.240073     0.895646     0.291644    Uiso  ? C
   C1135      1.0     0.258372     0.129158     0.301226    Uiso  ? C
   C1136      1.0     0.252883     0.885008     0.304196    Uiso  ? C
   H810       1.0     0.229256     0.887657     0.283952    Uiso  ? H
   C1137      1.0     0.268470     0.118227     0.315222    Uiso  ? C
   H811       1.0     0.258514     0.144871     0.302674    Uiso  ? H
   C1138      1.0     0.266676     0.894330     0.316622    Uiso  ? C
   H812       1.0     0.250182     0.868716     0.305169    Uiso  ? H
   H813       1.0     0.276356     0.126292     0.325767    Uiso  ? H
   C1139      1.0     0.280140     0.883792     0.329870    Uiso  ? C
   C1140      1.0     0.286910     0.865222     0.324088    Uiso  ? C
   C1141      1.0     0.284731     0.891140     0.348044    Uiso  ? C
   C1142      1.0     0.297934     0.854723     0.337159    Uiso  ? C
   H814       1.0     0.281375     0.858666     0.310589    Uiso  ? H
   C1143      1.0     0.297156     0.881731     0.360721    Uiso  ? C
   H815       1.0     0.278684     0.108935     0.353305    Uiso  ? H
   C1144      1.0     0.302764     0.862399     0.355620    Uiso  ? C
   H816       1.0     0.302354     0.839985     0.332811    Uiso  ? H
   H817       1.0     0.301544     0.888030     0.374319    Uiso  ? H
   C1145      1.0     0.313055     0.850136     0.370192    Uiso  ? C
   H818       1.0     0.305396     0.851366     0.384336    Uiso  ? H
   H819       1.0     0.310355     0.834430     0.366719    Uiso  ? H
   N75        1.0     0.333955     0.855221     0.372709    Uiso  ? N
   C1146      1.0     0.346623     0.859118     0.358065    Uiso  ? C
   C1147      1.0     0.343925     0.859360     0.388710    Uiso  ? C
   C1148      1.0     0.364485     0.864992     0.366689    Uiso  ? C
   H820       1.0     0.344209     0.860342     0.342338    Uiso  ? H
   H821       1.0     0.338967     0.857176     0.402930    Uiso  ? H
   H822       1.0     0.378432     0.870128     0.359810    Uiso  ? H
   N76        1.0     0.362522     0.864776     0.385349    Uiso  ? N
   C1149      1.0     0.748252     0.126454     0.213396    Uiso  ? C
   C1150      1.0     0.737111     0.131351     0.229388    Uiso  ? C
   C1151      1.0     0.767695     0.129799     0.236813    Uiso  ? C
   N77        1.0     0.766917     0.124684     0.218098    Uiso  ? N
   H823       1.0     0.741190     0.125217     0.199545    Uiso  ? H
   H824       1.0     0.721444     0.132833     0.230132    Uiso  ? H
   H825       1.0     0.780513     0.131159     0.244643    Uiso  ? H
   N78        1.0     0.750166     0.133796     0.243842    Uiso  ? N
   C1152      1.0     0.746502     0.140272     0.263225    Uiso  ? C
   H826       1.0     0.759478     0.143367     0.272303    Uiso  ? H
   H827       1.0     0.739546     0.155756     0.262439    Uiso  ? H
   C1153      1.0     0.733651     0.125899     0.274116    Uiso  ? C
   C1154      1.0     0.715070     0.130951     0.278745    Uiso  ? C
   C1155      1.0     0.740257     0.107058     0.277882    Uiso  ? C
   C1156      1.0     0.703857     0.118391     0.291032    Uiso  ? C
   H828       1.0     0.710707     0.145227     0.276291    Uiso  ? H
   C1157      1.0     0.727995     0.891008     0.289250    Uiso  ? C
   H829       1.0     0.755327     0.103260     0.272908    Uiso  ? H
   C1158      1.0     0.710503     0.896636     0.296647    Uiso  ? C
   H830       1.0     0.690218     0.124488     0.296444    Uiso  ? H
   H831       1.0     0.733838     0.876260     0.293268    Uiso  ? H
   C1159      1.0     0.698843     0.883620     0.309659    Uiso  ? C
   C1160      1.0     0.696105     0.863733     0.305115    Uiso  ? C
   C1161      1.0     0.688094     0.892819     0.324790    Uiso  ? C
   C1162      1.0     0.684130     0.852607     0.316889    Uiso  ? C
   H832       1.0     0.703050     0.857240     0.292672    Uiso  ? H
   C1163      1.0     0.676032     0.881177     0.336611    Uiso  ? C
   H833       1.0     0.690704     0.111343     0.327308    Uiso  ? H
   C1164      1.0     0.674978     0.860739     0.333231    Uiso  ? C
   H834       1.0     0.682172     0.837739     0.313811    Uiso  ? H
   H835       1.0     0.667755     0.888686     0.347247    Uiso  ? H
   C1165      1.0     0.664818     0.847168     0.347746    Uiso  ? C
   H836       1.0     0.664056     0.831147     0.342986    Uiso  ? H
   H837       1.0     0.672825     0.846512     0.362333    Uiso  ? H
   N79        1.0     0.645496     0.853777     0.349305    Uiso  ? N
   C1166      1.0     0.630806     0.851490     0.336598    Uiso  ? C
   C1167      1.0     0.637528     0.859952     0.365692    Uiso  ? C
   C1168      1.0     0.613585     0.855751     0.346625    Uiso  ? C
   H838       1.0     0.631258     0.844883     0.322683    Uiso  ? H
   H839       1.0     0.646146     0.862114     0.379490    Uiso  ? H
   H840       1.0     0.598217     0.853079     0.342619    Uiso  ? H
   N80        1.0     0.618632     0.861213     0.364712    Uiso  ? N
   C1169      1.0     0.873036     0.386149     0.664068    Uiso  ? C
   C1170      1.0     0.880401     0.380241     0.681644    Uiso  ? C
   C1171      1.0     0.107477     0.387031     0.662353    Uiso  ? C
   N81        1.0     0.887806     0.392130     0.652886    Uiso  ? N
   H841       1.0     0.857917     0.389845     0.662212    Uiso  ? H
   H842       1.0     0.871412     0.379036     0.695243    Uiso  ? H
   H843       1.0     0.122921     0.389261     0.656518    Uiso  ? H
   N82        1.0     0.103222     0.379602     0.679438    Uiso  ? N
   C1172      1.0     0.116267     0.374945     0.694956    Uiso  ? C
   H844       1.0     0.130222     0.381773     0.693197    Uiso  ? H
   H845       1.0     0.111068     0.382003     0.708757    Uiso  ? H
   C1173      1.0     0.117738     0.353012     0.695456    Uiso  ? C
   C1174      1.0     0.107351     0.342275     0.709513    Uiso  ? C
   C1175      1.0     0.127864     0.342357     0.681566    Uiso  ? C
   C1176      1.0     0.109594     0.322284     0.711178    Uiso  ? C
   H846       1.0     0.894819     0.349343     0.720726    Uiso  ? H
   C1177      1.0     0.130060     0.321991     0.683035    Uiso  ? C
   H847       1.0     0.135576     0.349784     0.669703    Uiso  ? H
   C1178      1.0     0.121611     0.312528     0.697680    Uiso  ? C
   H848       1.0     0.898425     0.314948     0.722636    Uiso  ? H
   H849       1.0     0.140685     0.313292     0.673821    Uiso  ? H
   C1179      1.0     0.126198     0.291528     0.700671    Uiso  ? C
   C1180      1.0     0.123158     0.278415     0.685914    Uiso  ? C
   C1181      1.0     0.131794     0.284611     0.718982    Uiso  ? C
   C1182      1.0     0.125391     0.258822     0.688714    Uiso  ? C
   H850       1.0     0.120235     0.284037     0.671323    Uiso  ? H
   C1183      1.0     0.135653     0.264507     0.722042    Uiso  ? C
   H851       1.0     0.134043     0.294380     0.731019    Uiso  ? H
   C1184      1.0     0.131213     0.251464     0.706546    Uiso  ? C
   H852       1.0     0.124932     0.249429     0.676365    Uiso  ? H
   H853       1.0     0.139885     0.259677     0.736133    Uiso  ? H
   C1185      1.0     0.134537     0.230155     0.708637    Uiso  ? C
   H854       1.0     0.132123     0.223079     0.694513    Uiso  ? H
   H855       1.0     0.149431     0.226907     0.712023    Uiso  ? H
   N83        1.0     0.120792     0.222339     0.722961    Uiso  ? N
   C1186      1.0     0.898125     0.223061     0.721613    Uiso  ? C
   C1187      1.0     0.125164     0.212460     0.739356    Uiso  ? C
   C1188      1.0     0.890498     0.212692     0.737599    Uiso  ? C
   H856       1.0     0.890989     0.229798     0.709436    Uiso  ? H
   H857       1.0     0.140280     0.209760     0.745057    Uiso  ? H
   H858       1.0     0.875868     0.208430     0.740304    Uiso  ? H
   N84        1.0     0.109036     0.207383     0.748533    Uiso  ? N
   C1189      1.0     0.880936     0.651282     0.623436    Uiso  ? C
   C1190      1.0     0.883397     0.669381     0.631151    Uiso  ? C
   C1191      1.0     0.109230     0.662550     0.611983    Uiso  ? C
   N85        1.0     0.893617     0.647898     0.609699    Uiso  ? N
   H859       1.0     0.868424     0.642808     0.625471    Uiso  ? H
   H860       1.0     0.875194     0.675928     0.642193    Uiso  ? H
   H861       1.0     0.122219     0.663662     0.604879    Uiso  ? H
   N86        1.0     0.102772     0.676686     0.623532    Uiso  ? N
   C1192      1.0     0.112626     0.694603     0.629156    Uiso  ? C
   H862       1.0     0.126241     0.695485     0.621203    Uiso  ? H
   H863       1.0     0.104583     0.706652     0.624174    Uiso  ? H
   C1193      1.0     0.116628     0.696121     0.650690    Uiso  ? C
   C1194      1.0     0.112445     0.713512     0.661544    Uiso  ? C
   C1195      1.0     0.122458     0.680598     0.661808    Uiso  ? C
   C1196      1.0     0.115259     0.715178     0.680975    Uiso  ? C
   H864       1.0     0.104168     0.724558     0.653987    Uiso  ? H
   C1197      1.0     0.125485     0.681941     0.682010    Uiso  ? C
   H865       1.0     0.125646     0.666947     0.656434    Uiso  ? H
   C1198      1.0     0.122685     0.698935     0.691475    Uiso  ? C
   H866       1.0     0.110128     0.728608     0.687583    Uiso  ? H
   H867       1.0     0.129611     0.668979     0.690377    Uiso  ? H
   C1199      1.0     0.124942     0.700582     0.713043    Uiso  ? C
   C1200      1.0     0.118922     0.686281     0.724974    Uiso  ? C
   C1201      1.0     0.134429     0.716181     0.721553    Uiso  ? C
   C1202      1.0     0.118397     0.689283     0.745713    Uiso  ? C
   H868       1.0     0.112554     0.672975     0.718330    Uiso  ? H
   C1203      1.0     0.136474     0.718033     0.741767    Uiso  ? C
   H869       1.0     0.141820     0.726626     0.712222    Uiso  ? H
   C1204      1.0     0.128278     0.704778     0.754352    Uiso  ? C
   H870       1.0     0.111832     0.679349     0.755568    Uiso  ? H
   H871       1.0     0.145178     0.729624     0.747389    Uiso  ? H
   C1205      1.0     0.130253     0.704980     0.776232    Uiso  ? C
   H872       1.0     0.128041     0.690464     0.783352    Uiso  ? H
   H873       1.0     0.144991     0.710048     0.780593    Uiso  ? H
   N87        1.0     0.117288     0.719384     0.784137    Uiso  ? N
   C1206      1.0     0.894734     0.718568     0.784484    Uiso  ? C
   C1207      1.0     0.121580     0.736597     0.791739    Uiso  ? C
   C1208      1.0     0.888031     0.734596     0.794154    Uiso  ? C
   H874       1.0     0.885433     0.706376     0.779739    Uiso  ? H
   H875       1.0     0.136321     0.743439     0.791753    Uiso  ? H
   H876       1.0     0.872723     0.737840     0.798657    Uiso  ? H
   N88        1.0     0.106096     0.746057     0.798999    Uiso  ? N
   C1209      1.0     0.893502     0.605192     0.335270    Uiso  ? C
   C1210      1.0     0.106374     0.616449     0.321481    Uiso  ? C
   C1211      1.0     0.123797     0.615459     0.347096    Uiso  ? C
   N89        1.0     0.108361     0.603965     0.350947    Uiso  ? N
   H877       1.0     0.881380     0.596634     0.332826    Uiso  ? H
   H878       1.0     0.897486     0.621308     0.307425    Uiso  ? H
   H879       1.0     0.134934     0.618684     0.356833    Uiso  ? H
   N90        1.0     0.123282     0.622604     0.329134    Uiso  ? N
   C1212      1.0     0.137833     0.634308     0.319596    Uiso  ? C
   H880       1.0     0.149177     0.636555     0.329446    Uiso  ? H
   H881       1.0     0.142870     0.627052     0.306080    Uiso  ? H
   C1213      1.0     0.129360     0.654149     0.314216    Uiso  ? C
   C1214      1.0     0.132119     0.660938     0.295010    Uiso  ? C
   C1215      1.0     0.123032     0.666344     0.328180    Uiso  ? C
   C1216      1.0     0.128317     0.680642     0.290174    Uiso  ? C
   H882       1.0     0.135866     0.650394     0.284215    Uiso  ? H
   C1217      1.0     0.119842     0.685913     0.324207    Uiso  ? C
   H883       1.0     0.123166     0.661315     0.342721    Uiso  ? H
   C1218      1.0     0.121812     0.693118     0.305060    Uiso  ? C
   H884       1.0     0.128532     0.684676     0.274461    Uiso  ? H
   H885       1.0     0.115232     0.696340     0.335457    Uiso  ? H
   C1219      1.0     0.119886     0.714386     0.300883    Uiso  ? C
   C1220      1.0     0.102532     0.723706     0.306291    Uiso  ? C
   C1221      1.0     0.133600     0.724748     0.290170    Uiso  ? C
   C1222      1.0     0.101575     0.744282     0.305083    Uiso  ? C
   H886       1.0     0.887140     0.715774     0.313508    Uiso  ? H
   C1223      1.0     0.131554     0.745235     0.286453    Uiso  ? C
   H887       1.0     0.145806     0.717982     0.285073    Uiso  ? H
   C1224      1.0     0.115548     0.754246     0.294174    Uiso  ? C
   H888       1.0     0.886421     0.752212     0.309634    Uiso  ? H
   H889       1.0     0.142953     0.752593     0.278220    Uiso  ? H
   C1225      1.0     0.113482     0.776438     0.290171    Uiso  ? C
   H890       1.0     0.104661     0.783792     0.301371    Uiso  ? H
   H891       1.0     0.127622     0.782853     0.291003    Uiso  ? H
   N91        1.0     0.104854     0.779638     0.270753    Uiso  ? N
   C1226      1.0     0.885044     0.771613     0.264823    Uiso  ? C
   C1227      1.0     0.110449     0.793132     0.257699    Uiso  ? C
   C1228      1.0     0.881552     0.778457     0.246252    Uiso  ? C
   H892       1.0     0.876699     0.759917     0.271804    Uiso  ? H
   H893       1.0     0.122942     0.802150     0.260041    Uiso  ? H
   H894       1.0     0.869883     0.773318     0.236381    Uiso  ? H
   N92        1.0     0.894179     0.793070     0.242396    Uiso  ? N
   C1229      1.0     0.884197     0.339242     0.392852    Uiso  ? C
   C1230      1.0     0.889521     0.323491     0.382110    Uiso  ? C
   C1231      1.0     0.117685     0.340798     0.389755    Uiso  ? C
   N93        1.0     0.102805     0.350285     0.398224    Uiso  ? N
   H895       1.0     0.869691     0.341923     0.397382    Uiso  ? H
   H896       1.0     0.881769     0.311335     0.377772    Uiso  ? H
   H897       1.0     0.132940     0.344474     0.390836    Uiso  ? H
   N94        1.0     0.112136     0.324359     0.381274    Uiso  ? N
   C1232      1.0     0.124434     0.310270     0.371569    Uiso  ? C
   H898       1.0     0.139523     0.315235     0.374578    Uiso  ? H
   H899       1.0     0.124015     0.295332     0.379045    Uiso  ? H
   C1233      1.0     0.119710     0.308745     0.350516    Uiso  ? C
   C1234      1.0     0.107906     0.293319     0.343715    Uiso  ? C
   C1235      1.0     0.129279     0.320338     0.336926    Uiso  ? C
   C1236      1.0     0.106696     0.288388     0.323677    Uiso  ? C
   H900       1.0     0.102030     0.282394     0.353212    Uiso  ? H
   C1237      1.0     0.126519     0.317215     0.316820    Uiso  ? C
   H901       1.0     0.139373     0.331797     0.342754    Uiso  ? H
   C1238      1.0     0.115648     0.301636     0.309557    Uiso  ? C
   H902       1.0     0.894865     0.275718     0.318223    Uiso  ? H
   H903       1.0     0.134612     0.326217     0.305887    Uiso  ? H
   C1239      1.0     0.114809     0.297011     0.288739    Uiso  ? C
   C1240      1.0     0.110016     0.311732     0.275476    Uiso  ? C
   C1241      1.0     0.118207     0.278532     0.281967    Uiso  ? C
   C1242      1.0     0.110649     0.308547     0.255062    Uiso  ? C
   H904       1.0     0.105974     0.325305     0.281918    Uiso  ? H
   C1243      1.0     0.118523     0.274828     0.262100    Uiso  ? C
   H905       1.0     0.121650     0.266897     0.291772    Uiso  ? H
   C1244      1.0     0.115856     0.290247     0.248772    Uiso  ? C
   H906       1.0     0.106765     0.320544     0.245996    Uiso  ? H
   H907       1.0     0.123267     0.260661     0.257691    Uiso  ? H
   C1245      1.0     0.120363     0.287587     0.227601    Uiso  ? C
   H908       1.0     0.118298     0.302156     0.220376    Uiso  ? H
   H909       1.0     0.136017     0.284564     0.223956    Uiso  ? H
   N95        1.0     0.108344     0.274116     0.217973    Uiso  ? N
   C1246      1.0     0.886015     0.277699     0.214963    Uiso  ? C
   C1247      1.0     0.112732     0.257980     0.208732    Uiso  ? C
   C1248      1.0     0.879827     0.263807     0.202896    Uiso  ? C
   H910       1.0     0.877576     0.289555     0.220385    Uiso  ? H
   H911       1.0     0.126831     0.250158     0.209344    Uiso  ? H
   H912       1.0     0.865165     0.262986     0.196965    Uiso  ? H
   N96        1.0     0.894121     0.252438     0.197741    Uiso  ? N
