
#======================================================================
# CRYSTAL DATA
#----------------------------------------------------------------------
data_VESTA_phase_1

_chemical_name_common                  ' Atoms. Timestep: 0'
_cell_length_a                         52.937698
_cell_length_b                         52.937698
_cell_length_c                         52.937698
_cell_angle_alpha                      90.000000
_cell_angle_beta                       90.000000
_cell_angle_gamma                      90.000000
_cell_volume                           1.000000
_space_group_name_H-M_alt              'P 1'
_space_group_IT_number                 1

loop_
_space_group_symop_operation_xyz
   'x, y, z'

loop_
   _atom_site_label
   _atom_site_occupancy
   _atom_site_fract_x
   _atom_site_fract_y
   _atom_site_fract_z
   _atom_site_adp_type
   _atom_site_U_iso_or_equiv
   _atom_site_type_symbol
   C1         1.0     0.801041     0.240590     0.160878    Uiso  ? C
   C2         1.0     0.794493     0.255846     0.138395    Uiso  ? C
   C3         1.0     0.784491     0.280439     0.141448    Uiso  ? C
   H1         1.0     0.779799     0.288875     0.159752    Uiso  ? H
   C4         1.0     0.779459     0.295532     0.120351    Uiso  ? C
   H2         1.0     0.773620     0.314862     0.123106    Uiso  ? H
   C5         1.0     0.784723     0.286497     0.896607    Uiso  ? C
   H3         1.0     0.781195     0.299435     0.881542    Uiso  ? H
   C6         1.0     0.794282     0.261702     0.893128    Uiso  ? C
   C7         1.0     0.799779     0.248037     0.113860    Uiso  ? C
   H4         1.0     0.806521     0.229018     0.111286    Uiso  ? H
   C8         1.0     0.797914     0.250953     0.867035    Uiso  ? C
   C9         1.0     0.771293     0.192103     0.193502    Uiso  ? C
   C10        1.0     0.747686     0.176774     0.191052    Uiso  ? C
   C11        1.0     0.726005     0.180210     0.206762    Uiso  ? C
   H5         1.0     0.725297     0.191546     0.223599    Uiso  ? H
   C12        1.0     0.703809     0.168594     0.199975    Uiso  ? C
   H6         1.0     0.687793     0.171241     0.211893    Uiso  ? H
   C13        1.0     0.702410     0.152219     0.179304    Uiso  ? C
   H7         1.0     0.684111     0.143859     0.172647    Uiso  ? H
   C14        1.0     0.724460     0.146909     0.165814    Uiso  ? C
   C15        1.0     0.746552     0.160134     0.171615    Uiso  ? C
   H8         1.0     0.762947     0.158548     0.158904    Uiso  ? H
   C16        1.0     0.725733     0.129762     0.145020    Uiso  ? C
   C17        1.0     0.820917     0.187165     0.236582    Uiso  ? C
   C18        1.0     0.824094     0.170502     0.258166    Uiso  ? C
   C19        1.0     0.812749     0.175659     0.282334    Uiso  ? C
   H9         1.0     0.799299     0.190664     0.284061    Uiso  ? H
   C20        1.0     0.818737     0.159753     0.303061    Uiso  ? C
   H10        1.0     0.809823     0.162546     0.321399    Uiso  ? H
   C21        1.0     0.833447     0.137891     0.299978    Uiso  ? C
   H11        1.0     0.834644     0.125529     0.316174    Uiso  ? H
   C22        1.0     0.845886     0.133712     0.277151    Uiso  ? C
   C23        1.0     0.841356     0.149835     0.256132    Uiso  ? C
   H12        1.0     0.849122     0.147143     0.238808    Uiso  ? H
   C24        1.0     0.865059     0.112988     0.273469    Uiso  ? C
   C25        1.0     0.851863     0.235212     0.208663    Uiso  ? C
   C26        1.0     0.875655     0.248365     0.216470    Uiso  ? C
   C27        1.0     0.875623     0.271230     0.230745    Uiso  ? C
   H13        1.0     0.858537     0.278144     0.241447    Uiso  ? H
   C28        1.0     0.104086     0.283104     0.233694    Uiso  ? C
   H14        1.0     0.103773     0.301611     0.242608    Uiso  ? H
   C29        1.0     0.126992     0.273434     0.225558    Uiso  ? C
   H15        1.0     0.143125     0.285955     0.225284    Uiso  ? H
   C30        1.0     0.126300     0.250642     0.212042    Uiso  ? C
   C31        1.0     0.103557     0.239017     0.207996    Uiso  ? C
   H16        1.0     0.102853     0.220245     0.198768    Uiso  ? H
   C32        1.0     0.149612     0.237485     0.204033    Uiso  ? C
   C33        1.0     0.809402     0.215568     0.781349    Uiso  ? C
   C34        1.0     0.811748     0.203836     0.756019    Uiso  ? C
   C35        1.0     0.794790     0.210266     0.736665    Uiso  ? C
   H17        1.0     0.779776     0.222922     0.740917    Uiso  ? H
   C36        1.0     0.796488     0.198588     0.713112    Uiso  ? C
   H18        1.0     0.783463     0.204085     0.698229    Uiso  ? H
   C37        1.0     0.816177     0.181181     0.708643    Uiso  ? C
   H19        1.0     0.815968     0.171962     0.691039    Uiso  ? H
   C38        1.0     0.834388     0.176373     0.726545    Uiso  ? C
   C39        1.0     0.830798     0.186154     0.751928    Uiso  ? C
   H20        1.0     0.842779     0.181203     0.767582    Uiso  ? H
   C40        1.0     0.852565     0.155767     0.722733    Uiso  ? C
   C41        1.0     0.767299     0.205194     0.832313    Uiso  ? C
   C42        1.0     0.744368     0.190828     0.838567    Uiso  ? C
   C43        1.0     0.721434     0.198962     0.829808    Uiso  ? C
   H21        1.0     0.720440     0.215767     0.820860    Uiso  ? H
   C44        1.0     0.698836     0.186015     0.834338    Uiso  ? C
   H22        1.0     0.681712     0.196064     0.828916    Uiso  ? H
   C45        1.0     0.699064     0.165264     0.849930    Uiso  ? C
   H23        1.0     0.682273     0.155234     0.854798    Uiso  ? H
   C46        1.0     0.722934     0.155330     0.859832    Uiso  ? C
   C47        1.0     0.746069     0.168849     0.854633    Uiso  ? C
   H24        1.0     0.764114     0.164472     0.864071    Uiso  ? H
   C48        1.0     0.723423     0.133807     0.876843    Uiso  ? C
   C49        1.0     0.839934     0.259988     0.818081    Uiso  ? C
   C50        1.0     0.862139     0.276289     0.811504    Uiso  ? C
   C51        1.0     0.859491     0.302006     0.802427    Uiso  ? C
   H25        1.0     0.841996     0.311188     0.802225    Uiso  ? H
   C52        1.0     0.881662     0.314826     0.795028    Uiso  ? C
   H26        1.0     0.880697     0.334929     0.787787    Uiso  ? H
   C53        1.0     0.109455     0.302963     0.792628    Uiso  ? C
   H27        1.0     0.126823     0.312246     0.787126    Uiso  ? H
   C54        1.0     0.112481     0.278920     0.802969    Uiso  ? C
   C55        1.0     0.886341     0.265705     0.811904    Uiso  ? C
   H28        1.0     0.888929     0.246573     0.819706    Uiso  ? H
   C56        1.0     0.137753     0.267512     0.806996    Uiso  ? C
   C57        1.0     0.716914     0.864405     0.872420    Uiso  ? C
   C58        1.0     0.715856     0.844948     0.851683    Uiso  ? C
   C59        1.0     0.692628     0.834371     0.843177    Uiso  ? C
   H29        1.0     0.676134     0.840646     0.852867    Uiso  ? H
   C60        1.0     0.691622     0.819865     0.822184    Uiso  ? C
   H30        1.0     0.673763     0.813781     0.815129    Uiso  ? H
   C61        1.0     0.715121     0.811588     0.809966    Uiso  ? C
   H31        1.0     0.714379     0.798444     0.793890    Uiso  ? H
   C62        1.0     0.738020     0.818598     0.820826    Uiso  ? C
   C63        1.0     0.738089     0.836797     0.840103    Uiso  ? C
   H32        1.0     0.755740     0.843421     0.846956    Uiso  ? H
   C64        1.0     0.761972     0.807821     0.810393    Uiso  ? C
   C65        1.0     0.723990     0.860744     0.138599    Uiso  ? C
   C66        1.0     0.725476     0.837668     0.154060    Uiso  ? C
   C67        1.0     0.705793     0.830905     0.168816    Uiso  ? C
   H33        1.0     0.689343     0.841676     0.169201    Uiso  ? H
   C68        1.0     0.706609     0.809878     0.182859    Uiso  ? C
   H34        1.0     0.691582     0.805596     0.195428    Uiso  ? H
   C69        1.0     0.727377     0.794386     0.183146    Uiso  ? C
   H35        1.0     0.724711     0.778111     0.194335    Uiso  ? H
   C70        1.0     0.748112     0.800365     0.168300    Uiso  ? C
   C71        1.0     0.747261     0.822589     0.154213    Uiso  ? C
   H36        1.0     0.764003     0.826503     0.142668    Uiso  ? H
   C72        1.0     0.772077     0.785774     0.168859    Uiso  ? C
   C73        1.0     0.169627     0.223689     0.765757    Uiso  ? C
   C74        1.0     0.163210     0.211422     0.741172    Uiso  ? C
   C75        1.0     0.175681     0.218273     0.718186    Uiso  ? C
   H37        1.0     0.191483     0.233180     0.716717    Uiso  ? H
   C76        1.0     0.173080     0.204616     0.696276    Uiso  ? C
   H38        1.0     0.182944     0.207506     0.678360    Uiso  ? H
   C77        1.0     0.157393     0.183474     0.696769    Uiso  ? C
   H39        1.0     0.157530     0.171477     0.680661    Uiso  ? H
   C78        1.0     0.140813     0.178653     0.717359    Uiso  ? C
   C79        1.0     0.144677     0.192843     0.739460    Uiso  ? C
   H40        1.0     0.133578     0.189169     0.754731    Uiso  ? H
   C80        1.0     0.123682     0.157635     0.715986    Uiso  ? C
   C81        1.0     0.183309     0.254952     0.854873    Uiso  ? C
   C82        1.0     0.194265     0.261704     0.880583    Uiso  ? C
   C83        1.0     0.210824     0.282876     0.883891    Uiso  ? C
   H41        1.0     0.215105     0.292187     0.866489    Uiso  ? H
   C84        1.0     0.221809     0.289640     0.106459    Uiso  ? C
   H42        1.0     0.232582     0.307350     0.106996    Uiso  ? H
   C85        1.0     0.215129     0.276068     0.128239    Uiso  ? C
   H43        1.0     0.222491     0.282373     0.146313    Uiso  ? H
   C86        1.0     0.199694     0.255385     0.127080    Uiso  ? C
   C87        1.0     0.188723     0.249412     0.102975    Uiso  ? C
   H44        1.0     0.177274     0.232637     0.101246    Uiso  ? H
   C88        1.0     0.195355     0.238695     0.150215    Uiso  ? C
   C89        1.0     0.185223     0.187150     0.227455    Uiso  ? C
   C90        1.0     0.181832     0.171224     0.249430    Uiso  ? C
   C91        1.0     0.197635     0.172648     0.270532    Uiso  ? C
   H45        1.0     0.210324     0.187930     0.270358    Uiso  ? H
   C92        1.0     0.194248     0.156673     0.291573    Uiso  ? C
   H46        1.0     0.206449     0.155769     0.308012    Uiso  ? H
   C93        1.0     0.173992     0.138761     0.290041    Uiso  ? C
   H47        1.0     0.173080     0.125819     0.306198    Uiso  ? H
   C94        1.0     0.157100     0.138527     0.270979    Uiso  ? C
   C95        1.0     0.161799     0.154127     0.250104    Uiso  ? C
   H48        1.0     0.151181     0.151069     0.233891    Uiso  ? H
   C96        1.0     0.137119     0.117824     0.270177    Uiso  ? C
   O1         1.0     0.815076     0.219826     0.158808    Uiso  ? O
   O2         1.0     0.793632     0.247738     0.183830    Uiso  ? O
   O3         1.0     0.792429     0.183166     0.183832    Uiso  ? O
   O4         1.0     0.771124     0.212336     0.206806    Uiso  ? O
   O5         1.0     0.831280     0.180387     0.214723    Uiso  ? O
   O6         1.0     0.806559     0.207060     0.237325    Uiso  ? O
   O7         1.0     0.852490     0.215742     0.193303    Uiso  ? O
   O8         1.0     0.831586     0.243849     0.218493    Uiso  ? O
   O9         1.0     0.820749     0.204888     0.800596    Uiso  ? O
   O10        1.0     0.793840     0.234865     0.784164    Uiso  ? O
   O11        1.0     0.789788     0.197655     0.840617    Uiso  ? O
   O12        1.0     0.765830     0.226668     0.820520    Uiso  ? O
   O13        1.0     0.813395     0.232305     0.864864    Uiso  ? O
   O14        1.0     0.785392     0.261003     0.847801    Uiso  ? O
   O15        1.0     0.843564     0.237262     0.827020    Uiso  ? O
   O16        1.0     0.817515     0.267656     0.812308    Uiso  ? O
   O17        1.0     0.739151     0.869114     0.883161    Uiso  ? O
   O18        1.0     0.696023     0.874397     0.881911    Uiso  ? O
   O19        1.0     0.744943     0.872329     0.131969    Uiso  ? O
   O20        1.0     0.703077     0.867697     0.128490    Uiso  ? O
   O21        1.0     0.746635     0.123491     0.134102    Uiso  ? O
   O22        1.0     0.703568     0.122121     0.135108    Uiso  ? O
   O23        1.0     0.744395     0.125269     0.884909    Uiso  ? O
   O24        1.0     0.701518     0.125751     0.885742    Uiso  ? O
   O25        1.0     0.161634     0.211307     0.785445    Uiso  ? O
   O26        1.0     0.181403     0.245997     0.767703    Uiso  ? O
   O27        1.0     0.137824     0.245156     0.817129    Uiso  ? O
   O28        1.0     0.158604     0.275760     0.796448    Uiso  ? O
   O29        1.0     0.170734     0.234330     0.851611    Uiso  ? O
   O30        1.0     0.190245     0.268693     0.834980    Uiso  ? O
   O31        1.0     0.193425     0.206070     0.824800    Uiso  ? O
   O32        1.0     0.214653     0.236281     0.803551    Uiso  ? O
   O33        1.0     0.181777     0.218632     0.150066    Uiso  ? O
   O34        1.0     0.205811     0.245354     0.172184    Uiso  ? O
   O35        1.0     0.148750     0.216796     0.189170    Uiso  ? O
   O36        1.0     0.172124     0.246979     0.210760    Uiso  ? O
   O37        1.0     0.176293     0.179241     0.205244    Uiso  ? O
   O38        1.0     0.198684     0.208216     0.230024    Uiso  ? O
   O39        1.0     0.210809     0.186853     0.173871    Uiso  ? O
   O40        1.0     0.233642     0.217907     0.193774    Uiso  ? O
   O41        1.0     0.116799     0.892968     0.735584    Uiso  ? O
   O42        1.0     0.112467     0.896488     0.692892    Uiso  ? O
   O43        1.0     0.864102     0.889793     0.735484    Uiso  ? O
   O44        1.0     0.857180     0.895906     0.693487    Uiso  ? O
   O45        1.0     0.864209     0.145357     0.742014    Uiso  ? O
   O46        1.0     0.859464     0.149403     0.699338    Uiso  ? O
   O47        1.0     0.117265     0.145175     0.737917    Uiso  ? O
   O48        1.0     0.112610     0.152783     0.694538    Uiso  ? O
   O49        1.0     0.840438     0.175844     0.165238    Uiso  ? O
   O50        1.0     0.842584     0.191308     0.847119    Uiso  ? O
   O51        1.0     0.780129     0.892371     0.104263    Uiso  ? O
   O52        1.0     0.143835     0.195499     0.828616    Uiso  ? O
   O53        1.0     0.159602     0.175240     0.158734    Uiso  ? O
   O54        1.0     0.888685     0.115647     0.774825    Uiso  ? O
   Zn1        1.0     0.822972     0.197589     0.185834    Uiso  ? Zn
   Zn2        1.0     0.799118     0.230270     0.213586    Uiso  ? Zn
   Zn3        1.0     0.818833     0.214597     0.834859    Uiso  ? Zn
   Zn4        1.0     0.788889     0.251749     0.814688    Uiso  ? Zn
   Zn5        1.0     0.746163     0.894973     0.106617    Uiso  ? Zn
   Zn6        1.0     0.695479     0.894833     0.108252    Uiso  ? Zn
   Zn7        1.0     0.163531     0.221555     0.819288    Uiso  ? Zn
   Zn8        1.0     0.188934     0.260291     0.799522    Uiso  ? Zn
   Zn9        1.0     0.177134     0.197653     0.177205    Uiso  ? Zn
   Zn10       1.0     0.204232     0.231963     0.204564    Uiso  ? Zn
   Zn11       1.0     0.887801     0.120886     0.742453    Uiso  ? Zn
   Zn12       1.0     0.884928     0.127288     0.690488    Uiso  ? Zn
   C97        1.0     0.188200     0.760439     0.821963    Uiso  ? C
   C98        1.0     0.192654     0.745321     0.844994    Uiso  ? C
   C99        1.0     0.197990     0.718875     0.842527    Uiso  ? C
   H49        1.0     0.198546     0.708937     0.825907    Uiso  ? H
   C100       1.0     0.201974     0.705278     0.864747    Uiso  ? C
   H50        1.0     0.203665     0.684667     0.863797    Uiso  ? H
   C101       1.0     0.202033     0.717538     0.888288    Uiso  ? C
   H51        1.0     0.205405     0.707454     0.105642    Uiso  ? H
   C102       1.0     0.197384     0.743600     0.890525    Uiso  ? C
   C103       1.0     0.192954     0.757566     0.868263    Uiso  ? C
   H52        1.0     0.189378     0.776486     0.869655    Uiso  ? H
   C104       1.0     0.196266     0.755699     0.116175    Uiso  ? C
   C105       1.0     0.223007     0.812347     0.797963    Uiso  ? C
   C106       1.0     0.246870     0.827756     0.802765    Uiso  ? C
   C107       1.0     0.268469     0.824798     0.786657    Uiso  ? C
   H53        1.0     0.268407     0.809965     0.773175    Uiso  ? H
   C108       1.0     0.289252     0.840556     0.788847    Uiso  ? C
   H54        1.0     0.306543     0.838627     0.777754    Uiso  ? H
   C109       1.0     0.288903     0.858318     0.807671    Uiso  ? C
   H55        1.0     0.305209     0.870281     0.809335    Uiso  ? H
   C110       1.0     0.268932     0.861137     0.825144    Uiso  ? C
   C111       1.0     0.247600     0.845692     0.821394    Uiso  ? C
   H56        1.0     0.230580     0.848320     0.833157    Uiso  ? H
   C112       1.0     0.270627     0.879292     0.845434    Uiso  ? C
   C113       1.0     0.176070     0.816580     0.749584    Uiso  ? C
   C114       1.0     0.170745     0.833678     0.727473    Uiso  ? C
   C115       1.0     0.179896     0.829312     0.702487    Uiso  ? C
   H57        1.0     0.193219     0.813902     0.697953    Uiso  ? H
   C116       1.0     0.172147     0.844211     0.682316    Uiso  ? C
   H58        1.0     0.180702     0.839898     0.665171    Uiso  ? H
   C117       1.0     0.155258     0.864450     0.685146    Uiso  ? C
   H59        1.0     0.150736     0.874998     0.667597    Uiso  ? H
   C118       1.0     0.144032     0.868795     0.709674    Uiso  ? C
   C119       1.0     0.152832     0.854956     0.730293    Uiso  ? C
   H60        1.0     0.145300     0.858027     0.749170    Uiso  ? H
   C120       1.0     0.123065     0.887039     0.713111    Uiso  ? C
   C121       1.0     0.141882     0.771454     0.774388    Uiso  ? C
   C122       1.0     0.116424     0.760201     0.767114    Uiso  ? C
   C123       1.0     0.114794     0.740500     0.748762    Uiso  ? C
   H61        1.0     0.133076     0.735774     0.739611    Uiso  ? H
   C124       1.0     0.887401     0.730054     0.742388    Uiso  ? C
   H62        1.0     0.885941     0.716348     0.726073    Uiso  ? H
   C125       1.0     0.865503     0.739029     0.752657    Uiso  ? C
   H63        1.0     0.847140     0.730825     0.747732    Uiso  ? H
   C126       1.0     0.866302     0.759466     0.769547    Uiso  ? C
   C127       1.0     0.889144     0.767897     0.778697    Uiso  ? C
   H64        1.0     0.888606     0.781279     0.793815    Uiso  ? H
   C128       1.0     0.841987     0.769963     0.780584    Uiso  ? C
   C129       1.0     0.187293     0.789773     0.203547    Uiso  ? C
   C130       1.0     0.184278     0.800641     0.228802    Uiso  ? C
   C131       1.0     0.198852     0.791007     0.249558    Uiso  ? C
   H65        1.0     0.212768     0.775925     0.246732    Uiso  ? H
   C132       1.0     0.192303     0.797586     0.274667    Uiso  ? C
   H66        1.0     0.201770     0.788957     0.290727    Uiso  ? H
   C133       1.0     0.172523     0.815336     0.278377    Uiso  ? C
   H67        1.0     0.168140     0.819031     0.297947    Uiso  ? H
   C134       1.0     0.160085     0.826500     0.258206    Uiso  ? C
   C135       1.0     0.165218     0.818371     0.233345    Uiso  ? C
   H68        1.0     0.156073     0.827199     0.217598    Uiso  ? H
   C136       1.0     0.139864     0.845531     0.260711    Uiso  ? C
   C137       1.0     0.231596     0.795815     0.152322    Uiso  ? C
   C138       1.0     0.255452     0.809678     0.146299    Uiso  ? C
   C139       1.0     0.278275     0.800427     0.154299    Uiso  ? C
   H69        1.0     0.279197     0.782778     0.165030    Uiso  ? H
   C140       1.0     0.300360     0.812449     0.147797    Uiso  ? C
   H70        1.0     0.318268     0.803898     0.152750    Uiso  ? H
   C141       1.0     0.300080     0.834938     0.133313    Uiso  ? C
   H71        1.0     0.318593     0.842753     0.125620    Uiso  ? H
   C142       1.0     0.277089     0.845037     0.124743    Uiso  ? C
   C143       1.0     0.254678     0.831927     0.131055    Uiso  ? C
   H72        1.0     0.236284     0.840322     0.123919    Uiso  ? H
   C144       1.0     0.275991     0.868434     0.109114    Uiso  ? C
   C145       1.0     0.152984     0.744515     0.168969    Uiso  ? C
   C146       1.0     0.129532     0.728832     0.173259    Uiso  ? C
   C147       1.0     0.131179     0.703933     0.182381    Uiso  ? C
   H73        1.0     0.148704     0.694883     0.185233    Uiso  ? H
   C148       1.0     0.109558     0.689516     0.185180    Uiso  ? C
   H74        1.0     0.111032     0.669496     0.188790    Uiso  ? H
   C149       1.0     0.880954     0.700835     0.182328    Uiso  ? C
   H75        1.0     0.862959     0.690194     0.184567    Uiso  ? H
   C150       1.0     0.878317     0.725555     0.176134    Uiso  ? C
   C151       1.0     0.105519     0.739711     0.172279    Uiso  ? C
   H76        1.0     0.103901     0.758248     0.165248    Uiso  ? H
   C152       1.0     0.853378     0.738509     0.174033    Uiso  ? C
   C153       1.0     0.274369     0.139873     0.121777    Uiso  ? C
   C154       1.0     0.276541     0.155286     0.142791    Uiso  ? C
   C155       1.0     0.298184     0.160260     0.155663    Uiso  ? C
   H77        1.0     0.315444     0.151299     0.150370    Uiso  ? H
   C156       1.0     0.299672     0.177329     0.176287    Uiso  ? C
   H78        1.0     0.318351     0.181696     0.185883    Uiso  ? H
   C157       1.0     0.277837     0.189428     0.184176    Uiso  ? C
   H79        1.0     0.279634     0.201758     0.200102    Uiso  ? H
   C158       1.0     0.255237     0.185078     0.172220    Uiso  ? C
   C159       1.0     0.254270     0.167126     0.152768    Uiso  ? C
   H80        1.0     0.236475     0.160487     0.145199    Uiso  ? H
   C160       1.0     0.232416     0.196179     0.180605    Uiso  ? C
   C161       1.0     0.268462     0.147011     0.853884    Uiso  ? C
   C162       1.0     0.265073     0.167948     0.835197    Uiso  ? C
   C163       1.0     0.284046     0.174186     0.817354    Uiso  ? C
   H81        1.0     0.302339     0.163919     0.819061    Uiso  ? H
   C164       1.0     0.280115     0.192182     0.798815    Uiso  ? C
   H82        1.0     0.293639     0.196582     0.784899    Uiso  ? H
   C165       1.0     0.257375     0.205120     0.797162    Uiso  ? C
   H83        1.0     0.252808     0.218952     0.782579    Uiso  ? H
   C166       1.0     0.238379     0.200384     0.815444    Uiso  ? C
   C167       1.0     0.241970     0.180665     0.832409    Uiso  ? C
   H84        1.0     0.225115     0.174614     0.843577    Uiso  ? H
   C168       1.0     0.214270     0.214760     0.815000    Uiso  ? C
   C169       1.0     0.821807     0.782202     0.211833    Uiso  ? C
   C170       1.0     0.828229     0.792106     0.237340    Uiso  ? C
   C171       1.0     0.815711     0.782954     0.258888    Uiso  ? C
   H85        1.0     0.799412     0.770957     0.256578    Uiso  ? H
   C172       1.0     0.820649     0.793635     0.281906    Uiso  ? C
   H86        1.0     0.809218     0.788668     0.298593    Uiso  ? H
   C173       1.0     0.838315     0.812549     0.283978    Uiso  ? C
   H87        1.0     0.841668     0.818248     0.303799    Uiso  ? H
   C174       1.0     0.851918     0.821084     0.263410    Uiso  ? C
   C175       1.0     0.845548     0.811882     0.238925    Uiso  ? C
   H88        1.0     0.853863     0.820396     0.222286    Uiso  ? H
   C176       1.0     0.870855     0.841808     0.266484    Uiso  ? C
   C177       1.0     0.807667     0.747448     0.125451    Uiso  ? C
   C178       1.0     0.802839     0.737102     0.899883    Uiso  ? C
   C179       1.0     0.794578     0.712500     0.895748    Uiso  ? C
   H89        1.0     0.794310     0.699571     0.111548    Uiso  ? H
   C180       1.0     0.791924     0.703616     0.871710    Uiso  ? C
   H90        1.0     0.787024     0.683696     0.869851    Uiso  ? H
   C181       1.0     0.792708     0.719508     0.850967    Uiso  ? C
   H91        1.0     0.790311     0.711028     0.831873    Uiso  ? H
   C182       1.0     0.800193     0.744756     0.854135    Uiso  ? C
   C183       1.0     0.804862     0.753487     0.879177    Uiso  ? C
   H92        1.0     0.808835     0.772644     0.881724    Uiso  ? H
   C184       1.0     0.800727     0.760872     0.832715    Uiso  ? C
   C185       1.0     0.804022     0.816830     0.759826    Uiso  ? C
   C186       1.0     0.808516     0.833087     0.737226    Uiso  ? C
   C187       1.0     0.792395     0.830349     0.716773    Uiso  ? C
   H93        1.0     0.778648     0.814984     0.715827    Uiso  ? H
   C188       1.0     0.793904     0.846366     0.695123    Uiso  ? C
   H94        1.0     0.781984     0.842328     0.679171    Uiso  ? H
   C189       1.0     0.815611     0.862274     0.693742    Uiso  ? C
   H95        1.0     0.819262     0.871554     0.674442    Uiso  ? H
   C190       1.0     0.831392     0.865421     0.714684    Uiso  ? C
   C191       1.0     0.827181     0.851064     0.736457    Uiso  ? C
   H96        1.0     0.839535     0.852192     0.751960    Uiso  ? H
   C192       1.0     0.852892     0.883089     0.714100    Uiso  ? C
   O55        1.0     0.174856     0.781369     0.824436    Uiso  ? O
   O56        1.0     0.200728     0.755847     0.800916    Uiso  ? O
   O57        1.0     0.201812     0.818972     0.808390    Uiso  ? O
   O58        1.0     0.223337     0.794194     0.781674    Uiso  ? O
   O59        1.0     0.168592     0.823581     0.771623    Uiso  ? O
   O60        1.0     0.191490     0.797318     0.746066    Uiso  ? O
   O61        1.0     0.141918     0.791353     0.789684    Uiso  ? O
   O62        1.0     0.163510     0.761138     0.766384    Uiso  ? O
   O63        1.0     0.176773     0.801663     0.183922    Uiso  ? O
   O64        1.0     0.201387     0.770317     0.198364    Uiso  ? O
   O65        1.0     0.209638     0.807640     0.149286    Uiso  ? O
   O66        1.0     0.232329     0.771301     0.158020    Uiso  ? O
   O67        1.0     0.187299     0.777703     0.119566    Uiso  ? O
   O68        1.0     0.203790     0.741838     0.135842    Uiso  ? O
   O69        1.0     0.151139     0.766544     0.157236    Uiso  ? O
   O70        1.0     0.176000     0.736379     0.175902    Uiso  ? O
   O71        1.0     0.252827     0.135890     0.110924    Uiso  ? O
   O72        1.0     0.294816     0.131478     0.110145    Uiso  ? O
   O73        1.0     0.248066     0.137552     0.863364    Uiso  ? O
   O74        1.0     0.291087     0.141928     0.862511    Uiso  ? O
   O75        1.0     0.249492     0.885699     0.856893    Uiso  ? O
   O76        1.0     0.291929     0.886880     0.853540    Uiso  ? O
   O77        1.0     0.254070     0.880750     0.106002    Uiso  ? O
   O78        1.0     0.296506     0.876976     0.899363    Uiso  ? O
   O79        1.0     0.829831     0.794086     0.191278    Uiso  ? O
   O80        1.0     0.808531     0.761739     0.209407    Uiso  ? O
   O81        1.0     0.852851     0.762194     0.165463    Uiso  ? O
   O82        1.0     0.831934     0.727691     0.181384    Uiso  ? O
   O83        1.0     0.820526     0.768641     0.129241    Uiso  ? O
   O84        1.0     0.799864     0.735060     0.145462    Uiso  ? O
   O85        1.0     0.793052     0.796867     0.160869    Uiso  ? O
   O86        1.0     0.773155     0.762832     0.176351    Uiso  ? O
   O87        1.0     0.813382     0.782450     0.834345    Uiso  ? O
   O88        1.0     0.789242     0.753739     0.812012    Uiso  ? O
   O89        1.0     0.842552     0.787990     0.797209    Uiso  ? O
   O90        1.0     0.819944     0.760569     0.773090    Uiso  ? O
   O91        1.0     0.816232     0.822767     0.779853    Uiso  ? O
   O92        1.0     0.789710     0.796602     0.757808    Uiso  ? O
   O93        1.0     0.783794     0.816409     0.817962    Uiso  ? O
   O94        1.0     0.760474     0.787973     0.795165    Uiso  ? O
   O95        1.0     0.872818     0.107652     0.251079    Uiso  ? O
   O96        1.0     0.878475     0.104848     0.293321    Uiso  ? O
   O97        1.0     0.125205     0.113427     0.248972    Uiso  ? O
   O98        1.0     0.134176     0.103985     0.290223    Uiso  ? O
   O99        1.0     0.130848     0.858458     0.241273    Uiso  ? O
   O100       1.0     0.131278     0.850855     0.282986    Uiso  ? O
   O101       1.0     0.876061     0.855196     0.246171    Uiso  ? O
   O102       1.0     0.879932     0.848435     0.288387    Uiso  ? O
   O103       1.0     0.157355     0.829707     0.820320    Uiso  ? O
   O104       1.0     0.159961     0.815865     0.135621    Uiso  ? O
   O105       1.0     0.211956     0.108243     0.891431    Uiso  ? O
   O106       1.0     0.844263     0.807167     0.145778    Uiso  ? O
   O107       1.0     0.833660     0.829758     0.826810    Uiso  ? O
   O108       1.0     0.893504     0.884840     0.209694    Uiso  ? O
   Zn13       1.0     0.170602     0.805556     0.800727    Uiso  ? Zn
   Zn14       1.0     0.196619     0.772757     0.771377    Uiso  ? Zn
   Zn15       1.0     0.178390     0.790199     0.149914    Uiso  ? Zn
   Zn16       1.0     0.205630     0.752543     0.168497    Uiso  ? Zn
   Zn17       1.0     0.247373     0.112041     0.885923    Uiso  ? Zn
   Zn18       1.0     0.298295     0.112766     0.880991    Uiso  ? Zn
   Zn19       1.0     0.825702     0.782622     0.160433    Uiso  ? Zn
   Zn20       1.0     0.801511     0.743056     0.179230    Uiso  ? Zn
   Zn21       1.0     0.814844     0.805611     0.809856    Uiso  ? Zn
   Zn22       1.0     0.787912     0.771611     0.782519    Uiso  ? Zn
   Zn23       1.0     0.103187     0.881591     0.243147    Uiso  ? Zn
   Zn24       1.0     0.107822     0.875064     0.291456    Uiso  ? Zn
   H97        1.0     0.154445     0.829537     0.147647    Uiso  ? H
   H98        1.0     0.144610     0.810118     0.128011    Uiso  ? H
   H99        1.0     0.844700     0.194957     0.864169    Uiso  ? H
   H100       1.0     0.833664     0.174781     0.845430    Uiso  ? H
   H101       1.0     0.882529     0.892373     0.779022    Uiso  ? H
   H102       1.0     0.873685     0.124433     0.781559    Uiso  ? H
   H103       1.0     0.125627     0.199549     0.824834    Uiso  ? H
   H104       1.0     0.145644     0.193282     0.847166    Uiso  ? H
   H105       1.0     0.111731     0.894209     0.201651    Uiso  ? H
   H106       1.0     0.891088     0.868149     0.201097    Uiso  ? H
   H107       1.0     0.830868     0.176411     0.148896    Uiso  ? H
   H108       1.0     0.839494     0.158185     0.172207    Uiso  ? H
   H109       1.0     0.168552     0.159241     0.156032    Uiso  ? H
   H110       1.0     0.145219     0.171887     0.170312    Uiso  ? H
   H111       1.0     0.833451     0.816378     0.134280    Uiso  ? H
   H112       1.0     0.849492     0.819125     0.159186    Uiso  ? H
   H113       1.0     0.790128     0.111414     0.113953    Uiso  ? H
   H114       1.0     0.783369     0.895785     0.886114    Uiso  ? H
   H115       1.0     0.845935     0.818415     0.836276    Uiso  ? H
   H116       1.0     0.819689     0.833852     0.839028    Uiso  ? H
   H117       1.0     0.202696     0.115202     0.877067    Uiso  ? H
   H118       1.0     0.206761     0.885223     0.889002    Uiso  ? H
   H119       1.0     0.139026     0.826093     0.823589    Uiso  ? H
   H120       1.0     0.158769     0.846268     0.810891    Uiso  ? H
   C193       1.0     0.774574     0.376792     0.528928    Uiso  ? C
   C194       1.0     0.757170     0.388976     0.545778    Uiso  ? C
   C195       1.0     0.735430     0.375430     0.553317    Uiso  ? C
   H121       1.0     0.733815     0.354738     0.550028    Uiso  ? H
   C196       1.0     0.715523     0.386915     0.565990    Uiso  ? C
   H122       1.0     0.700198     0.374888     0.571640    Uiso  ? H
   C197       1.0     0.717552     0.412369     0.573203    Uiso  ? C
   H123       1.0     0.702850     0.422317     0.584063    Uiso  ? H
   C198       1.0     0.739342     0.425689     0.566948    Uiso  ? C
   C199       1.0     0.758470     0.414357     0.551249    Uiso  ? C
   H124       1.0     0.774256     0.425421     0.544826    Uiso  ? H
   C200       1.0     0.738018     0.453437     0.570981    Uiso  ? C
   C201       1.0     0.775023     0.376894     0.464237    Uiso  ? C
   C202       1.0     0.758428     0.388256     0.444725    Uiso  ? C
   C203       1.0     0.740628     0.373237     0.433193    Uiso  ? C
   H125       1.0     0.737009     0.354316     0.439360    Uiso  ? H
   C204       1.0     0.724307     0.383449     0.415589    Uiso  ? C
   H126       1.0     0.710495     0.370792     0.407007    Uiso  ? H
   C205       1.0     0.728121     0.409570     0.407336    Uiso  ? C
   H127       1.0     0.714571     0.417294     0.394967    Uiso  ? H
   C206       1.0     0.747117     0.424368     0.418464    Uiso  ? C
   C207       1.0     0.759821     0.413601     0.438236    Uiso  ? C
   H128       1.0     0.771130     0.425606     0.450874    Uiso  ? H
   C208       1.0     0.749858     0.451366     0.412138    Uiso  ? C
   C209       1.0     0.830740     0.337956     0.463364    Uiso  ? C
   C210       1.0     0.849823     0.326910     0.445987    Uiso  ? C
   C211       1.0     0.844817     0.302980     0.437449    Uiso  ? C
   H129       1.0     0.826673     0.295542     0.440790    Uiso  ? H
   C212       1.0     0.863254     0.289480     0.423661    Uiso  ? C
   H130       1.0     0.857518     0.270255     0.416203    Uiso  ? H
   C213       1.0     0.887104     0.300561     0.421041    Uiso  ? C
   H131       1.0     0.106683     0.290045     0.411371    Uiso  ? H
   C214       1.0     0.892155     0.324402     0.430076    Uiso  ? C
   C215       1.0     0.872731     0.338953     0.441472    Uiso  ? C
   H132       1.0     0.876492     0.359454     0.443771    Uiso  ? H
   C216       1.0     0.120814     0.336777     0.425049    Uiso  ? C
   C217       1.0     0.829378     0.342463     0.530779    Uiso  ? C
   C218       1.0     0.845542     0.330611     0.551808    Uiso  ? C
   C219       1.0     0.835697     0.310690     0.565779    Uiso  ? C
   H133       1.0     0.817315     0.303810     0.563844    Uiso  ? H
   C220       1.0     0.850503     0.299461     0.584588    Uiso  ? C
   H134       1.0     0.843659     0.282249     0.594764    Uiso  ? H
   C221       1.0     0.874654     0.306985     0.588694    Uiso  ? C
   H135       1.0     0.885954     0.299097     0.602866    Uiso  ? H
   C222       1.0     0.883672     0.328325     0.576148    Uiso  ? C
   C223       1.0     0.869854     0.338537     0.556037    Uiso  ? C
   H136       1.0     0.877527     0.354292     0.545075    Uiso  ? H
   C224       1.0     0.113891     0.340181     0.583248    Uiso  ? C
   C225       1.0     0.737277     0.545692     0.579739    Uiso  ? C
   C226       1.0     0.739257     0.573345     0.583961    Uiso  ? C
   C227       1.0     0.718062     0.589228     0.590561    Uiso  ? C
   H137       1.0     0.699595     0.581799     0.591615    Uiso  ? H
   C228       1.0     0.721602     0.613942     0.594890    Uiso  ? C
   H138       1.0     0.707100     0.626536     0.596783    Uiso  ? H
   C229       1.0     0.745485     0.624594     0.592897    Uiso  ? C
   H139       1.0     0.746919     0.646516     0.594048    Uiso  ? H
   C230       1.0     0.767503     0.609127     0.588902    Uiso  ? C
   C231       1.0     0.763276     0.584598     0.584501    Uiso  ? C
   H140       1.0     0.779701     0.570831     0.582857    Uiso  ? H
   C232       1.0     0.793919     0.620015     0.589325    Uiso  ? C
   C233       1.0     0.716925     0.502398     0.533412    Uiso  ? C
   C234       1.0     0.703475     0.505090     0.508988    Uiso  ? C
   C235       1.0     0.677165     0.503841     0.508226    Uiso  ? C
   H141       1.0     0.665882     0.503953     0.524999    Uiso  ? H
   C236       1.0     0.665334     0.505904     0.484113    Uiso  ? C
   H142       1.0     0.645146     0.506278     0.483928    Uiso  ? H
   C237       1.0     0.679630     0.505367     0.461779    Uiso  ? C
   H143       1.0     0.670325     0.506758     0.444113    Uiso  ? H
   C238       1.0     0.706248     0.505394     0.464020    Uiso  ? C
   C239       1.0     0.717760     0.507787     0.487392    Uiso  ? C
   H144       1.0     0.737379     0.509000     0.488505    Uiso  ? H
   C240       1.0     0.721748     0.503244     0.440745    Uiso  ? C
   C241       1.0     0.758993     0.496534     0.616735    Uiso  ? C
   C242       1.0     0.772224     0.496937     0.642191    Uiso  ? C
   C243       1.0     0.759073     0.494268     0.665437    Uiso  ? C
   H145       1.0     0.737884     0.491198     0.664011    Uiso  ? H
   C244       1.0     0.771759     0.490937     0.689163    Uiso  ? C
   H146       1.0     0.759907     0.488837     0.705679    Uiso  ? H
   C245       1.0     0.797826     0.492394     0.690652    Uiso  ? C
   H147       1.0     0.806517     0.490954     0.709157    Uiso  ? H
   C246       1.0     0.812224     0.495395     0.668005    Uiso  ? C
   C247       1.0     0.798770     0.498826     0.644148    Uiso  ? C
   H148       1.0     0.809987     0.498684     0.627096    Uiso  ? H
   C248       1.0     0.840077     0.496448     0.670026    Uiso  ? C
   C249       1.0     0.755580     0.543862     0.393036    Uiso  ? C
   C250       1.0     0.758976     0.570652     0.384630    Uiso  ? C
   C251       1.0     0.742464     0.583877     0.368504    Uiso  ? C
   H149       1.0     0.724982     0.575739     0.362904    Uiso  ? H
   C252       1.0     0.747113     0.610057     0.362916    Uiso  ? C
   H150       1.0     0.734319     0.619670     0.350120    Uiso  ? H
   C253       1.0     0.768635     0.622683     0.369824    Uiso  ? C
   H151       1.0     0.771990     0.641484     0.363807    Uiso  ? H
   C254       1.0     0.785366     0.609118     0.386445    Uiso  ? C
   C255       1.0     0.781554     0.582868     0.392052    Uiso  ? C
   H152       1.0     0.794414     0.573795     0.403632    Uiso  ? H
   C256       1.0     0.808859     0.621534     0.396910    Uiso  ? C
   C257       1.0     0.779799     0.488363     0.367786    Uiso  ? C
   C258       1.0     0.796851     0.478810     0.346763    Uiso  ? C
   C259       1.0     0.785944     0.469482     0.324346    Uiso  ? C
   H153       1.0     0.765639     0.465466     0.322429    Uiso  ? H
   C260       1.0     0.801776     0.464646     0.302815    Uiso  ? C
   H154       1.0     0.792918     0.456189     0.285682    Uiso  ? H
   C261       1.0     0.826986     0.473097     0.303554    Uiso  ? C
   H155       1.0     0.838466     0.469582     0.287489    Uiso  ? H
   C262       1.0     0.837576     0.481045     0.326409    Uiso  ? C
   C263       1.0     0.822472     0.483425     0.347613    Uiso  ? C
   H156       1.0     0.829654     0.490626     0.364172    Uiso  ? H
   C264       1.0     0.865069     0.488391     0.327429    Uiso  ? C
   C265       1.0     0.878150     0.547270     0.676906    Uiso  ? C
   C266       1.0     0.870808     0.574400     0.675559    Uiso  ? C
   C267       1.0     0.870048     0.589285     0.697936    Uiso  ? C
   H157       1.0     0.873078     0.582658     0.718031    Uiso  ? H
   C268       1.0     0.863475     0.613810     0.696211    Uiso  ? C
   H158       1.0     0.863050     0.626226     0.713579    Uiso  ? H
   C269       1.0     0.856956     0.624589     0.672999    Uiso  ? C
   H159       1.0     0.851196     0.644667     0.672021    Uiso  ? H
   C270       1.0     0.857122     0.610922     0.650852    Uiso  ? C
   C271       1.0     0.865050     0.585482     0.651850    Uiso  ? C
   H160       1.0     0.863841     0.574009     0.634956    Uiso  ? H
   C272       1.0     0.849498     0.621447     0.626832    Uiso  ? C
   C273       1.0     0.896859     0.454693     0.677856    Uiso  ? C
   C274       1.0     0.110682     0.428298     0.679133    Uiso  ? C
   C275       1.0     0.113071     0.414621     0.702133    Uiso  ? C
   H161       1.0     0.108016     0.422474     0.720984    Uiso  ? H
   C276       1.0     0.121862     0.389550     0.702186    Uiso  ? C
   H162       1.0     0.124460     0.378069     0.719174    Uiso  ? H
   C277       1.0     0.129486     0.378244     0.680121    Uiso  ? C
   H163       1.0     0.133759     0.357684     0.679854    Uiso  ? H
   C278       1.0     0.126167     0.390549     0.657632    Uiso  ? C
   C279       1.0     0.118139     0.415687     0.656890    Uiso  ? C
   H164       1.0     0.118278     0.425117     0.639348    Uiso  ? H
   C280       1.0     0.136115     0.379487     0.633948    Uiso  ? C
   C281       1.0     0.173091     0.342147     0.553891    Uiso  ? C
   C282       1.0     0.181044     0.330156     0.530483    Uiso  ? C
   C283       1.0     0.191596     0.305738     0.531510    Uiso  ? C
   H165       1.0     0.195895     0.296639     0.549424    Uiso  ? H
   C284       1.0     0.195327     0.292268     0.508801    Uiso  ? C
   H166       1.0     0.201717     0.272225     0.508472    Uiso  ? H
   C285       1.0     0.193425     0.303844     0.485328    Uiso  ? C
   H167       1.0     0.200805     0.294036     0.468478    Uiso  ? H
   C286       1.0     0.182075     0.327052     0.484421    Uiso  ? C
   C287       1.0     0.175702     0.340528     0.506513    Uiso  ? C
   H168       1.0     0.167375     0.359640     0.508000    Uiso  ? H
   C288       1.0     0.177122     0.338377     0.460170    Uiso  ? C
   O109       1.0     0.794102     0.389603     0.519239    Uiso  ? O
   O110       1.0     0.769966     0.354160     0.520866    Uiso  ? O
   O111       1.0     0.793825     0.389990     0.472363    Uiso  ? O
   O112       1.0     0.770375     0.353997     0.473786    Uiso  ? O
   O113       1.0     0.834255     0.361848     0.470646    Uiso  ? O
   O114       1.0     0.812171     0.324610     0.474318    Uiso  ? O
   O115       1.0     0.835774     0.364071     0.520031    Uiso  ? O
   O116       1.0     0.810320     0.328762     0.523814    Uiso  ? O
   O117       1.0     0.756445     0.534626     0.570224    Uiso  ? O
   O118       1.0     0.717214     0.533361     0.585698    Uiso  ? O
   O119       1.0     0.742026     0.504372     0.534289    Uiso  ? O
   O120       1.0     0.703375     0.498958     0.554639    Uiso  ? O
   O121       1.0     0.756638     0.467359     0.560769    Uiso  ? O
   O122       1.0     0.719167     0.463118     0.582625    Uiso  ? O
   O123       1.0     0.773913     0.496266     0.596156    Uiso  ? O
   O124       1.0     0.734270     0.497169     0.614665    Uiso  ? O
   O125       1.0     0.769898     0.533765     0.410043    Uiso  ? O
   O126       1.0     0.737557     0.530803     0.382624    Uiso  ? O
   O127       1.0     0.789514     0.493956     0.389235    Uiso  ? O
   O128       1.0     0.755385     0.487826     0.365933    Uiso  ? O
   O129       1.0     0.768707     0.463724     0.420686    Uiso  ? O
   O130       1.0     0.732079     0.462929     0.400080    Uiso  ? O
   O131       1.0     0.746167     0.501034     0.443930    Uiso  ? O
   O132       1.0     0.711175     0.501266     0.418394    Uiso  ? O
   O133       1.0     0.883668     0.535658     0.654748    Uiso  ? O
   O134       1.0     0.881139     0.534623     0.697486    Uiso  ? O
   O135       1.0     0.855059     0.499748     0.649394    Uiso  ? O
   O136       1.0     0.850278     0.498008     0.692849    Uiso  ? O
   O137       1.0     0.894800     0.467209     0.656055    Uiso  ? O
   O138       1.0     0.890474     0.465679     0.700239    Uiso  ? O
   O139       1.0     0.128178     0.507561     0.657224    Uiso  ? O
   O140       1.0     0.124817     0.505392     0.698537    Uiso  ? O
   O141       1.0     0.132886     0.391585     0.612022    Uiso  ? O
   O142       1.0     0.150381     0.359704     0.633919    Uiso  ? O
   O143       1.0     0.119099     0.363253     0.574476    Uiso  ? O
   O144       1.0     0.130449     0.329259     0.597703    Uiso  ? O
   O145       1.0     0.162738     0.364389     0.554556    Uiso  ? O
   O146       1.0     0.175035     0.329449     0.574631    Uiso  ? O
   O147       1.0     0.179351     0.393861     0.590293    Uiso  ? O
   O148       1.0     0.191594     0.357673     0.608731    Uiso  ? O
   O149       1.0     0.873148     0.636197     0.569680    Uiso  ? O
   O150       1.0     0.860756     0.670926     0.593186    Uiso  ? O
   O151       1.0     0.835187     0.636694     0.545534    Uiso  ? O
   O152       1.0     0.819183     0.671825     0.566294    Uiso  ? O
   O153       1.0     0.811479     0.607712     0.578853    Uiso  ? O
   O154       1.0     0.797780     0.643732     0.598017    Uiso  ? O
   O155       1.0     0.856085     0.609310     0.606311    Uiso  ? O
   O156       1.0     0.835836     0.642933     0.625513    Uiso  ? O
   O157       1.0     0.835725     0.409319     0.492821    Uiso  ? O
   O158       1.0     0.792895     0.502517     0.547189    Uiso  ? O
   O159       1.0     0.797367     0.504406     0.439234    Uiso  ? O
   O160       1.0     0.896840     0.502823     0.617271    Uiso  ? O
   O161       1.0     0.141719     0.409400     0.563280    Uiso  ? O
   O162       1.0     0.856109     0.590641     0.555671    Uiso  ? O
   Zn25       1.0     0.817373     0.379837     0.494897    Uiso  ? Zn
   Zn26       1.0     0.789346     0.337646     0.498213    Uiso  ? Zn
   Zn27       1.0     0.761260     0.501535     0.563512    Uiso  ? Zn
   Zn28       1.0     0.714753     0.497162     0.587000    Uiso  ? Zn
   Zn29       1.0     0.771616     0.498531     0.418608    Uiso  ? Zn
   Zn30       1.0     0.730781     0.495552     0.388924    Uiso  ? Zn
   Zn31       1.0     0.890010     0.502200     0.650467    Uiso  ? Zn
   Zn32       1.0     0.885929     0.500600     0.701204    Uiso  ? Zn
   Zn33       1.0     0.148466     0.381609     0.581333    Uiso  ? Zn
   Zn34       1.0     0.162758     0.340778     0.606723    Uiso  ? Zn
   Zn35       1.0     0.844836     0.618635     0.573106    Uiso  ? Zn
   Zn36       1.0     0.828354     0.661092     0.598508    Uiso  ? Zn
   C289       1.0     0.229390     0.623399     0.476364    Uiso  ? C
   C290       1.0     0.246997     0.612004     0.458604    Uiso  ? C
   C291       1.0     0.262719     0.626414     0.443588    Uiso  ? C
   H169       1.0     0.262243     0.647030     0.444850    Uiso  ? H
   C292       1.0     0.278430     0.615640     0.427095    Uiso  ? C
   H170       1.0     0.288323     0.627275     0.412980    Uiso  ? H
   C293       1.0     0.278011     0.589878     0.423642    Uiso  ? C
   H171       1.0     0.290560     0.582866     0.408517    Uiso  ? H
   C294       1.0     0.263970     0.573495     0.438875    Uiso  ? C
   C295       1.0     0.247277     0.584982     0.456541    Uiso  ? C
   H172       1.0     0.235485     0.573251     0.468551    Uiso  ? H
   C296       1.0     0.262323     0.546287     0.434037    Uiso  ? C
   C297       1.0     0.227244     0.626557     0.544106    Uiso  ? C
   C298       1.0     0.244147     0.617050     0.564349    Uiso  ? C
   C299       1.0     0.262612     0.631797     0.574920    Uiso  ? C
   H173       1.0     0.263120     0.650102     0.569462    Uiso  ? H
   C300       1.0     0.278819     0.621672     0.593953    Uiso  ? C
   H174       1.0     0.294160     0.633752     0.602099    Uiso  ? H
   C301       1.0     0.276760     0.595660     0.600637    Uiso  ? C
   H175       1.0     0.286840     0.588577     0.616333    Uiso  ? H
   C302       1.0     0.258699     0.580512     0.588761    Uiso  ? C
   C303       1.0     0.241738     0.591452     0.570987    Uiso  ? C
   H176       1.0     0.226031     0.579978     0.563805    Uiso  ? H
   C304       1.0     0.255008     0.553042     0.595695    Uiso  ? C
   C305       1.0     0.169906     0.658166     0.540834    Uiso  ? C
   C306       1.0     0.151298     0.670155     0.556891    Uiso  ? C
   C307       1.0     0.156595     0.693526     0.567853    Uiso  ? C
   H177       1.0     0.174259     0.704350     0.565460    Uiso  ? H
   C308       1.0     0.138841     0.704815     0.583247    Uiso  ? C
   H178       1.0     0.143706     0.722521     0.593041    Uiso  ? H
   C309       1.0     0.115740     0.693798     0.586928    Uiso  ? C
   H179       1.0     0.102527     0.702852     0.599868    Uiso  ? H
   C310       1.0     0.108969     0.669931     0.576132    Uiso  ? C
   C311       1.0     0.127438     0.658956     0.560208    Uiso  ? C
   H180       1.0     0.121819     0.642653     0.548026    Uiso  ? H
   C312       1.0     0.878434     0.657762     0.580572    Uiso  ? C
   C313       1.0     0.173156     0.656436     0.474725    Uiso  ? C
   C314       1.0     0.158338     0.667076     0.452727    Uiso  ? C
   C315       1.0     0.168248     0.688700     0.439906    Uiso  ? C
   H181       1.0     0.186600     0.697429     0.445860    Uiso  ? H
   C316       1.0     0.153844     0.700393     0.420644    Uiso  ? C
   H182       1.0     0.162467     0.715620     0.410836    Uiso  ? H
   C317       1.0     0.130203     0.691318     0.413717    Uiso  ? C
   H183       1.0     0.119539     0.701543     0.398182    Uiso  ? H
   C318       1.0     0.120685     0.669147     0.425928    Uiso  ? C
   C319       1.0     0.135492     0.656929     0.444311    Uiso  ? C
   H184       1.0     0.127873     0.640872     0.454378    Uiso  ? H
   C320       1.0     0.890289     0.658731     0.418712    Uiso  ? C
   C321       1.0     0.259497     0.456331     0.413481    Uiso  ? C
   C322       1.0     0.257738     0.428539     0.410147    Uiso  ? C
   C323       1.0     0.276558     0.415211     0.398244    Uiso  ? C
   H185       1.0     0.292486     0.423632     0.389251    Uiso  ? H
   C324       1.0     0.273538     0.388815     0.396179    Uiso  ? C
   H186       1.0     0.288565     0.378105     0.386810    Uiso  ? H
   C325       1.0     0.251128     0.377124     0.402859    Uiso  ? C
   H187       1.0     0.249031     0.357004     0.399757    Uiso  ? H
   C326       1.0     0.231552     0.390026     0.413709    Uiso  ? C
   C327       1.0     0.235196     0.415994     0.418211    Uiso  ? C
   H188       1.0     0.219841     0.427391     0.426695    Uiso  ? H
   C328       1.0     0.206143     0.377818     0.417476    Uiso  ? C
   C329       1.0     0.282554     0.493563     0.466883    Uiso  ? C
   C330       1.0     0.294698     0.492821     0.492170    Uiso  ? C
   C331       1.0     0.321921     0.492326     0.493158    Uiso  ? C
   H189       1.0     0.332792     0.492620     0.475329    Uiso  ? H
   C332       1.0     0.333206     0.493180     0.516487    Uiso  ? C
   H190       1.0     0.354002     0.492862     0.516678    Uiso  ? H
   C333       1.0     0.318526     0.491997     0.538807    Uiso  ? C
   H191       1.0     0.326154     0.488874     0.557841    Uiso  ? H
   C334       1.0     0.292411     0.494585     0.537181    Uiso  ? C
   C335       1.0     0.280064     0.495987     0.514156    Uiso  ? C
   H192       1.0     0.260046     0.496482     0.511861    Uiso  ? H
   C336       1.0     0.277187     0.499185     0.561221    Uiso  ? C
   C337       1.0     0.240865     0.510001     0.384384    Uiso  ? C
   C338       1.0     0.228005     0.510693     0.358936    Uiso  ? C
   C339       1.0     0.242856     0.511560     0.336349    Uiso  ? C
   H193       1.0     0.264202     0.514106     0.336897    Uiso  ? H
   C340       1.0     0.230349     0.513061     0.313295    Uiso  ? C
   H194       1.0     0.239798     0.513585     0.295438    Uiso  ? H
   C341       1.0     0.203875     0.512274     0.311977    Uiso  ? C
   H195       1.0     0.194549     0.510915     0.293315    Uiso  ? H
   C342       1.0     0.189087     0.510262     0.333729    Uiso  ? C
   C343       1.0     0.201449     0.511225     0.356960    Uiso  ? C
   H196       1.0     0.191196     0.511133     0.375147    Uiso  ? H
   C344       1.0     0.161355     0.506865     0.331609    Uiso  ? C
   C345       1.0     0.250055     0.458824     0.604795    Uiso  ? C
   C346       1.0     0.247294     0.431231     0.610070    Uiso  ? C
   C347       1.0     0.263613     0.418403     0.627448    Uiso  ? C
   H197       1.0     0.279346     0.428214     0.636571    Uiso  ? H
   C348       1.0     0.257866     0.393043     0.634375    Uiso  ? C
   H198       1.0     0.268120     0.382948     0.649727    Uiso  ? H
   C349       1.0     0.238124     0.379750     0.621682    Uiso  ? C
   H199       1.0     0.233757     0.360678     0.628207    Uiso  ? H
   C350       1.0     0.222206     0.391434     0.605852    Uiso  ? C
   C351       1.0     0.226896     0.416427     0.599175    Uiso  ? C
   H200       1.0     0.214364     0.423885     0.584625    Uiso  ? H
   C352       1.0     0.197133     0.380183     0.600599    Uiso  ? C
   C353       1.0     0.223224     0.510071     0.636995    Uiso  ? C
   C354       1.0     0.207989     0.511076     0.660188    Uiso  ? C
   C355       1.0     0.220139     0.511375     0.685055    Uiso  ? C
   H201       1.0     0.240302     0.511118     0.688652    Uiso  ? H
   C356       1.0     0.204449     0.510891     0.706950    Uiso  ? C
   H202       1.0     0.213495     0.512396     0.726509    Uiso  ? H
   C357       1.0     0.178186     0.508150     0.705054    Uiso  ? C
   H203       1.0     0.167403     0.506512     0.721938    Uiso  ? H
   C358       1.0     0.166614     0.508804     0.680801    Uiso  ? C
   C359       1.0     0.181605     0.509357     0.658735    Uiso  ? C
   H204       1.0     0.172475     0.508144     0.640255    Uiso  ? H
   C360       1.0     0.138884     0.507421     0.679384    Uiso  ? C
   C361       1.0     0.121108     0.454073     0.331594    Uiso  ? C
   C362       1.0     0.130666     0.428065     0.331925    Uiso  ? C
   C363       1.0     0.132752     0.414124     0.309869    Uiso  ? C
   H205       1.0     0.128787     0.422496     0.291604    Uiso  ? H
   C364       1.0     0.142020     0.389044     0.310900    Uiso  ? C
   H206       1.0     0.142450     0.378873     0.293283    Uiso  ? H
   C365       1.0     0.146726     0.377011     0.334586    Uiso  ? C
   H207       1.0     0.151781     0.357939     0.336228    Uiso  ? H
   C366       1.0     0.143424     0.391122     0.356204    Uiso  ? C
   C367       1.0     0.135655     0.416229     0.355396    Uiso  ? C
   H208       1.0     0.134378     0.426890     0.372984    Uiso  ? H
   C368       1.0     0.149295     0.379013     0.380914    Uiso  ? C
   C369       1.0     0.107235     0.546106     0.330759    Uiso  ? C
   C370       1.0     0.893793     0.573111     0.329025    Uiso  ? C
   C371       1.0     0.893410     0.585535     0.304757    Uiso  ? C
   H209       1.0     0.895044     0.577414     0.286301    Uiso  ? H
   C372       1.0     0.885255     0.611358     0.304821    Uiso  ? C
   H210       1.0     0.883018     0.620986     0.285854    Uiso  ? H
   C373       1.0     0.874304     0.622165     0.325972    Uiso  ? C
   H211       1.0     0.864300     0.640946     0.323301    Uiso  ? H
   C374       1.0     0.876382     0.610525     0.349230    Uiso  ? C
   C375       1.0     0.887019     0.586440     0.351412    Uiso  ? C
   H212       1.0     0.887913     0.575971     0.369293    Uiso  ? H
   C376       1.0     0.864746     0.622753     0.371581    Uiso  ? C
   C377       1.0     0.831435     0.660769     0.450929    Uiso  ? C
   C378       1.0     0.822594     0.671504     0.475212    Uiso  ? C
   C379       1.0     0.811544     0.696018     0.475359    Uiso  ? C
   H213       1.0     0.810524     0.705406     0.456781    Uiso  ? H
   C380       1.0     0.806832     0.708555     0.498022    Uiso  ? C
   H214       1.0     0.798083     0.727547     0.500160    Uiso  ? H
   C381       1.0     0.809772     0.695929     0.520473    Uiso  ? C
   H215       1.0     0.803068     0.704513     0.537844    Uiso  ? H
   C382       1.0     0.818603     0.671189     0.520992    Uiso  ? C
   C383       1.0     0.826085     0.659394     0.498864    Uiso  ? C
   H216       1.0     0.831966     0.640164     0.498768    Uiso  ? H
   C384       1.0     0.823446     0.658880     0.545145    Uiso  ? C
   O163       1.0     0.211638     0.609384     0.485874    Uiso  ? O
   O164       1.0     0.234518     0.646110     0.485853    Uiso  ? O
   O165       1.0     0.207936     0.613861     0.535872    Uiso  ? O
   O166       1.0     0.233373     0.648991     0.535037    Uiso  ? O
   O167       1.0     0.166223     0.635723     0.531348    Uiso  ? O
   O168       1.0     0.190193     0.670596     0.533004    Uiso  ? O
   O169       1.0     0.169684     0.633424     0.482857    Uiso  ? O
   O170       1.0     0.191545     0.670633     0.484589    Uiso  ? O
   O171       1.0     0.244084     0.465921     0.428984    Uiso  ? O
   O172       1.0     0.276927     0.470919     0.403123    Uiso  ? O
   O173       1.0     0.257717     0.492664     0.465737    Uiso  ? O
   O174       1.0     0.295465     0.498760     0.446129    Uiso  ? O
   O175       1.0     0.243684     0.532817     0.443165    Uiso  ? O
   O176       1.0     0.279260     0.535622     0.419792    Uiso  ? O
   O177       1.0     0.226637     0.505528     0.404773    Uiso  ? O
   O178       1.0     0.265547     0.511667     0.384468    Uiso  ? O
   O179       1.0     0.232329     0.470402     0.591944    Uiso  ? O
   O180       1.0     0.268228     0.472213     0.615362    Uiso  ? O
   O181       1.0     0.212251     0.508843     0.615619    Uiso  ? O
   O182       1.0     0.248121     0.510439     0.638425    Uiso  ? O
   O183       1.0     0.235546     0.540112     0.585814    Uiso  ? O
   O184       1.0     0.271277     0.540579     0.607796    Uiso  ? O
   O185       1.0     0.252947     0.501259     0.560342    Uiso  ? O
   O186       1.0     0.289487     0.502324     0.583107    Uiso  ? O
   O187       1.0     0.119165     0.466854     0.352152    Uiso  ? O
   O188       1.0     0.122308     0.466418     0.309903    Uiso  ? O
   O189       1.0     0.147130     0.504935     0.352079    Uiso  ? O
   O190       1.0     0.149348     0.504421     0.309517    Uiso  ? O
   O191       1.0     0.108121     0.534685     0.352258    Uiso  ? O
   O192       1.0     0.110053     0.533087     0.309872    Uiso  ? O
   O193       1.0     0.875468     0.493291     0.348699    Uiso  ? O
   O194       1.0     0.877041     0.490238     0.306517    Uiso  ? O
   O195       1.0     0.864995     0.610313     0.393346    Uiso  ? O
   O196       1.0     0.857148     0.646212     0.370750    Uiso  ? O
   O197       1.0     0.882756     0.637831     0.429692    Uiso  ? O
   O198       1.0     0.874873     0.672231     0.404978    Uiso  ? O
   O199       1.0     0.840770     0.638061     0.451082    Uiso  ? O
   O200       1.0     0.831932     0.673915     0.429398    Uiso  ? O
   O201       1.0     0.822338     0.609397     0.413791    Uiso  ? O
   O202       1.0     0.814135     0.644737     0.390405    Uiso  ? O
   O203       1.0     0.125725     0.357630     0.436499    Uiso  ? O
   O204       1.0     0.138173     0.325405     0.412701    Uiso  ? O
   O205       1.0     0.166695     0.360586     0.459427    Uiso  ? O
   O206       1.0     0.180523     0.325583     0.439094    Uiso  ? O
   O207       1.0     0.186524     0.390434     0.427598    Uiso  ? O
   O208       1.0     0.201353     0.355792     0.407640    Uiso  ? O
   O209       1.0     0.143335     0.389418     0.403072    Uiso  ? O
   O210       1.0     0.160775     0.356925     0.380306    Uiso  ? O
   O211       1.0     0.172993     0.588087     0.510969    Uiso  ? O
   O212       1.0     0.208234     0.497509     0.451733    Uiso  ? O
   O213       1.0     0.200206     0.506524     0.565308    Uiso  ? O
   O214       1.0     0.110896     0.499375     0.391521    Uiso  ? O
   O215       1.0     0.863146     0.592149     0.440668    Uiso  ? O
   O216       1.0     0.144804     0.405327     0.452816    Uiso  ? O
   Zn37       1.0     0.187461     0.619035     0.508706    Uiso  ? Zn
   Zn38       1.0     0.214111     0.661341     0.509358    Uiso  ? Zn
   Zn39       1.0     0.239396     0.498969     0.437708    Uiso  ? Zn
   Zn40       1.0     0.283651     0.502781     0.412776    Uiso  ? Zn
   Zn41       1.0     0.228778     0.505566     0.585088    Uiso  ? Zn
   Zn42       1.0     0.272627     0.507037     0.612502    Uiso  ? Zn
   Zn43       1.0     0.113059     0.500934     0.356454    Uiso  ? Zn
   Zn44       1.0     0.115623     0.500127     0.303752    Uiso  ? Zn
   Zn45       1.0     0.853801     0.621377     0.423512    Uiso  ? Zn
   Zn46       1.0     0.842903     0.663553     0.397609    Uiso  ? Zn
   Zn47       1.0     0.153872     0.378611     0.434309    Uiso  ? Zn
   Zn48       1.0     0.170698     0.338005     0.408426    Uiso  ? Zn
   H217       1.0     0.200820     0.513243     0.458232    Uiso  ? H
   H218       1.0     0.197902     0.494166     0.436427    Uiso  ? H
   H219       1.0     0.800364     0.485282     0.546112    Uiso  ? H
   H220       1.0     0.788877     0.507955     0.529882    Uiso  ? H
   H221       1.0     0.868632     0.594391     0.543011    Uiso  ? H
   H222       1.0     0.864039     0.576600     0.565259    Uiso  ? H
   H223       1.0     0.884427     0.489889     0.610979    Uiso  ? H
   H224       1.0     0.890907     0.519480     0.609492    Uiso  ? H
   H225       1.0     0.133398     0.400168     0.466300    Uiso  ? H
   H226       1.0     0.133585     0.415796     0.443214    Uiso  ? H
   H227       1.0     0.854005     0.406914     0.488805    Uiso  ? H
   H228       1.0     0.838404     0.415239     0.510833    Uiso  ? H
   H229       1.0     0.124524     0.414376     0.561398    Uiso  ? H
   H230       1.0     0.149576     0.425328     0.568937    Uiso  ? H
   H231       1.0     0.127876     0.503240     0.399096    Uiso  ? H
   H232       1.0     0.109592     0.481855     0.396682    Uiso  ? H
   H233       1.0     0.796571     0.521209     0.446047    Uiso  ? H
   H234       1.0     0.812120     0.505866     0.427987    Uiso  ? H
   H235       1.0     0.864835     0.600749     0.457147    Uiso  ? H
   H236       1.0     0.849146     0.580492     0.443584    Uiso  ? H
   H237       1.0     0.190194     0.520330     0.572256    Uiso  ? H
   H238       1.0     0.188791     0.492048     0.568473    Uiso  ? H
   H239       1.0     0.168741     0.584511     0.493826    Uiso  ? H
   H240       1.0     0.156008     0.592187     0.520650    Uiso  ? H
   C385       1.0     0.663249     0.856556     0.432541    Uiso  ? C
   C386       1.0     0.675191     0.841619     0.453352    Uiso  ? C
   C387       1.0     0.700968     0.837227     0.453490    Uiso  ? C
   H241       1.0     0.714702     0.843280     0.439298    Uiso  ? H
   C388       1.0     0.712663     0.825021     0.473914    Uiso  ? C
   H242       1.0     0.731501     0.821532     0.475006    Uiso  ? H
   C389       1.0     0.697629     0.814155     0.492912    Uiso  ? C
   H243       1.0     0.705153     0.803127     0.507399    Uiso  ? H
   C390       1.0     0.670776     0.817918     0.492104    Uiso  ? C
   C391       1.0     0.660056     0.833306     0.474135    Uiso  ? C
   H244       1.0     0.640514     0.836249     0.473839    Uiso  ? H
   C392       1.0     0.654735     0.807759     0.512673    Uiso  ? C
   C393       1.0     0.620861     0.843710     0.383438    Uiso  ? C
   C394       1.0     0.612077     0.819117     0.374894    Uiso  ? C
   C395       1.0     0.625727     0.803934     0.357946    Uiso  ? C
   H245       1.0     0.643505     0.810133     0.349638    Uiso  ? H
   C396       1.0     0.617708     0.779928     0.353006    Uiso  ? C
   H246       1.0     0.624983     0.769059     0.338973    Uiso  ? H
   C397       1.0     0.596854     0.769331     0.364754    Uiso  ? C
   H247       1.0     0.590522     0.750325     0.359083    Uiso  ? H
   C398       1.0     0.582544     0.783587     0.381523    Uiso  ? C
   C399       1.0     0.589794     0.808420     0.386734    Uiso  ? C
   H248       1.0     0.579777     0.819918     0.400942    Uiso  ? H
   C400       1.0     0.560409     0.771322     0.394279    Uiso  ? C
   C401       1.0     0.618519     0.112648     0.367805    Uiso  ? C
   C402       1.0     0.606006     0.126278     0.347535    Uiso  ? C
   C403       1.0     0.615833     0.127085     0.323860    Uiso  ? C
   H249       1.0     0.634687     0.119789     0.320547    Uiso  ? H
   C404       1.0     0.606244     0.144548     0.307109    Uiso  ? C
   H250       1.0     0.615817     0.144982     0.289135    Uiso  ? H
   C405       1.0     0.585321     0.159539     0.312031    Uiso  ? C
   H251       1.0     0.578405     0.171422     0.296840    Uiso  ? H
   C406       1.0     0.573086     0.156468     0.335210    Uiso  ? C
   C407       1.0     0.584139     0.140817     0.353363    Uiso  ? C
   H252       1.0     0.576913     0.139801     0.373262    Uiso  ? H
   C408       1.0     0.547975     0.168555     0.339781    Uiso  ? C
   C409       1.0     0.658677     0.129277     0.412846    Uiso  ? C
   C410       1.0     0.667642     0.154351     0.422199    Uiso  ? C
   C411       1.0     0.692632     0.162857     0.418721    Uiso  ? C
   H253       1.0     0.706736     0.149973     0.410980    Uiso  ? H
   C412       1.0     0.700366     0.184906     0.428835    Uiso  ? C
   H254       1.0     0.719836     0.191022     0.428827    Uiso  ? H
   C413       1.0     0.683117     0.200730     0.441147    Uiso  ? C
   H255       1.0     0.689880     0.218389     0.448271    Uiso  ? H
   C414       1.0     0.658381     0.194292     0.444315    Uiso  ? C
   C415       1.0     0.650175     0.170765     0.434339    Uiso  ? C
   H256       1.0     0.631942     0.163849     0.439035    Uiso  ? H
   C416       1.0     0.641170     0.210902     0.457153    Uiso  ? C
   C417       1.0     0.607400     0.776943     0.586634    Uiso  ? C
   C418       1.0     0.593918     0.771633     0.610822    Uiso  ? C
   C419       1.0     0.604447     0.756472     0.628826    Uiso  ? C
   H257       1.0     0.623247     0.748230     0.625298    Uiso  ? H
   C420       1.0     0.590879     0.750843     0.650339    Uiso  ? C
   H258       1.0     0.599207     0.737353     0.664111    Uiso  ? H
   C421       1.0     0.565135     0.759470     0.653656    Uiso  ? C
   H259       1.0     0.555832     0.754273     0.670846    Uiso  ? H
   C422       1.0     0.555452     0.776972     0.635599    Uiso  ? C
   C423       1.0     0.569321     0.781118     0.613720    Uiso  ? C
   H260       1.0     0.560063     0.792548     0.598691    Uiso  ? H
   C424       1.0     0.530517     0.788162     0.640183    Uiso  ? C
   C425       1.0     0.611892     0.756973     0.526635    Uiso  ? C
   C426       1.0     0.601801     0.737062     0.509719    Uiso  ? C
   C427       1.0     0.610912     0.711944     0.509365    Uiso  ? C
   H261       1.0     0.625942     0.707050     0.521081    Uiso  ? H
   C428       1.0     0.602337     0.693768     0.491482    Uiso  ? C
   H262       1.0     0.608820     0.674260     0.492334    Uiso  ? H
   C429       1.0     0.584214     0.700098     0.473882    Uiso  ? C
   H263       1.0     0.577140     0.687342     0.459288    Uiso  ? H
   C430       1.0     0.575910     0.725130     0.472972    Uiso  ? C
   C431       1.0     0.584231     0.743158     0.491219    Uiso  ? C
   H264       1.0     0.575989     0.761667     0.490243    Uiso  ? H
   C432       1.0     0.558112     0.733130     0.452831    Uiso  ? C
   C433       1.0     0.648431     0.826001     0.576835    Uiso  ? C
   C434       1.0     0.656675     0.847203     0.592712    Uiso  ? C
   C435       1.0     0.678897     0.844999     0.606861    Uiso  ? C
   H265       1.0     0.691497     0.828986     0.605329    Uiso  ? H
   C436       1.0     0.688979     0.865270     0.620726    Uiso  ? C
   H266       1.0     0.706295     0.863806     0.631082    Uiso  ? H
   C437       1.0     0.674373     0.886483     0.624552    Uiso  ? C
   H267       1.0     0.681092     0.106605     0.636794    Uiso  ? H
   C438       1.0     0.649810     0.886863     0.615143    Uiso  ? C
   C439       1.0     0.642018     0.868685     0.596917    Uiso  ? C
   H268       1.0     0.624214     0.869201     0.588224    Uiso  ? H
   C440       1.0     0.633606     0.113071     0.621860    Uiso  ? C
   C441       1.0     0.493566     0.727553     0.441062    Uiso  ? C
   C442       1.0     0.470694     0.715437     0.451894    Uiso  ? C
   C443       1.0     0.462862     0.692538     0.442451    Uiso  ? C
   H269       1.0     0.474891     0.682243     0.430289    Uiso  ? H
   C444       1.0     0.441737     0.681000     0.452338    Uiso  ? C
   H270       1.0     0.438012     0.662564     0.446365    Uiso  ? H
   C445       1.0     0.425760     0.693987     0.468956    Uiso  ? C
   H271       1.0     0.407994     0.685184     0.475108    Uiso  ? H
   C446       1.0     0.431947     0.718983     0.477269    Uiso  ? C
   C447       1.0     0.455980     0.726937     0.470486    Uiso  ? C
   H272       1.0     0.461545     0.743910     0.478274    Uiso  ? H
   C448       1.0     0.415161     0.733747     0.494652    Uiso  ? C
   C449       1.0     0.493970     0.763339     0.390172    Uiso  ? C
   C450       1.0     0.473346     0.766654     0.372863    Uiso  ? C
   C451       1.0     0.464829     0.746226     0.356474    Uiso  ? C
   H273       1.0     0.474886     0.729072     0.355586    Uiso  ? H
   C452       1.0     0.443160     0.750282     0.342229    Uiso  ? C
   H274       1.0     0.436490     0.733723     0.331394    Uiso  ? H
   C453       1.0     0.431410     0.774087     0.342363    Uiso  ? C
   H275       1.0     0.414107     0.775761     0.331452    Uiso  ? H
   C454       1.0     0.438632     0.793516     0.358875    Uiso  ? C
   C455       1.0     0.459080     0.789885     0.374371    Uiso  ? C
   H276       1.0     0.464184     0.804833     0.387377    Uiso  ? H
   C456       1.0     0.422736     0.815434     0.362258    Uiso  ? C
   C457       1.0     0.581617     0.116337     0.661773    Uiso  ? C
   C458       1.0     0.570330     0.892475     0.678596    Uiso  ? C
   C459       1.0     0.574911     0.892966     0.705050    Uiso  ? C
   H277       1.0     0.588225     0.110934     0.712217    Uiso  ? H
   C460       1.0     0.562759     0.876742     0.721945    Uiso  ? C
   H278       1.0     0.567313     0.877679     0.742096    Uiso  ? H
   C461       1.0     0.543238     0.860925     0.712610    Uiso  ? C
   H279       1.0     0.532722     0.848960     0.723702    Uiso  ? H
   C462       1.0     0.538472     0.858993     0.686447    Uiso  ? C
   C463       1.0     0.553843     0.874467     0.669926    Uiso  ? C
   H280       1.0     0.550182     0.875410     0.650399    Uiso  ? H
   C464       1.0     0.519888     0.841910     0.674920    Uiso  ? C
   C465       1.0     0.626024     0.176016     0.606281    Uiso  ? C
   C466       1.0     0.640016     0.190877     0.588050    Uiso  ? C
   C467       1.0     0.661856     0.203303     0.595735    Uiso  ? C
   H281       1.0     0.671116     0.199561     0.613467    Uiso  ? H
   C468       1.0     0.675920     0.218680     0.579062    Uiso  ? C
   H282       1.0     0.694459     0.225210     0.586615    Uiso  ? H
   C469       1.0     0.666322     0.223151     0.554464    Uiso  ? C
   H283       1.0     0.677968     0.236215     0.543305    Uiso  ? H
   C470       1.0     0.643202     0.211543     0.547191    Uiso  ? C
   C471       1.0     0.629337     0.196416     0.563820    Uiso  ? C
   H284       1.0     0.610205     0.189562     0.560440    Uiso  ? H
   C472       1.0     0.632679     0.219698     0.522367    Uiso  ? C
   C473       1.0     0.589275     0.248233     0.443127    Uiso  ? C
   C474       1.0     0.576945     0.255459     0.420372    Uiso  ? C
   C475       1.0     0.580856     0.280197     0.408900    Uiso  ? C
   H285       1.0     0.590750     0.295050     0.419701    Uiso  ? H
   C476       1.0     0.566769     0.285726     0.387320    Uiso  ? C
   H286       1.0     0.568626     0.303961     0.379554    Uiso  ? H
   C477       1.0     0.552569     0.267442     0.375126    Uiso  ? C
   H287       1.0     0.545461     0.270418     0.356187    Uiso  ? H
   C478       1.0     0.547786     0.244721     0.387175    Uiso  ? C
   C479       1.0     0.560507     0.238786     0.409359    Uiso  ? C
   H288       1.0     0.555987     0.219611     0.418317    Uiso  ? H
   C480       1.0     0.532234     0.224840     0.374148    Uiso  ? C
   O217       1.0     0.639200     0.864548     0.435684    Uiso  ? O
   O218       1.0     0.675809     0.864238     0.412419    Uiso  ? O
   O219       1.0     0.607330     0.857345     0.398552    Uiso  ? O
   O220       1.0     0.643335     0.852050     0.377146    Uiso  ? O
   O221       1.0     0.605511     0.107309     0.388297    Uiso  ? O
   O222       1.0     0.642577     0.106592     0.365258    Uiso  ? O
   O223       1.0     0.637069     0.120565     0.420939    Uiso  ? O
   O224       1.0     0.673946     0.115616     0.399038    Uiso  ? O
   O225       1.0     0.597879     0.793757     0.571095    Uiso  ? O
   O226       1.0     0.629454     0.766100     0.582238    Uiso  ? O
   O227       1.0     0.600310     0.778681     0.527048    Uiso  ? O
   O228       1.0     0.634857     0.755265     0.534729    Uiso  ? O
   O229       1.0     0.631475     0.814548     0.514843    Uiso  ? O
   O230       1.0     0.664856     0.792148     0.529302    Uiso  ? O
   O231       1.0     0.628304     0.829454     0.563045    Uiso  ? O
   O232       1.0     0.661133     0.804383     0.576724    Uiso  ? O
   O233       1.0     0.499513     0.751938     0.446391    Uiso  ? O
   O234       1.0     0.508157     0.714523     0.424046    Uiso  ? O
   O235       1.0     0.497559     0.778549     0.409637    Uiso  ? O
   O236       1.0     0.509126     0.743736     0.386649    Uiso  ? O
   O237       1.0     0.544817     0.783853     0.409047    Uiso  ? O
   O238       1.0     0.558926     0.746982     0.393716    Uiso  ? O
   O239       1.0     0.547490     0.755973     0.454042    Uiso  ? O
   O240       1.0     0.554268     0.719362     0.433438    Uiso  ? O
   O241       1.0     0.575177     0.118019     0.637969    Uiso  ? O
   O242       1.0     0.601818     0.128083     0.668603    Uiso  ? O
   O243       1.0     0.612925     0.118421     0.608975    Uiso  ? O
   O244       1.0     0.638265     0.126878     0.642686    Uiso  ? O
   O245       1.0     0.605955     0.163048     0.600049    Uiso  ? O
   O246       1.0     0.632924     0.173861     0.629363    Uiso  ? O
   O247       1.0     0.567262     0.164848     0.628048    Uiso  ? O
   O248       1.0     0.592785     0.176299     0.660668    Uiso  ? O
   O249       1.0     0.610199     0.211069     0.515042    Uiso  ? O
   O250       1.0     0.642222     0.237985     0.508946    Uiso  ? O
   O251       1.0     0.620564     0.201223     0.466145    Uiso  ? O
   O252       1.0     0.648095     0.233735     0.463721    Uiso  ? O
   O253       1.0     0.579928     0.229679     0.456760    Uiso  ? O
   O254       1.0     0.609416     0.260179     0.451356    Uiso  ? O
   O255       1.0     0.577444     0.241078     0.502682    Uiso  ? O
   O256       1.0     0.605545     0.273306     0.500226    Uiso  ? O
   O257       1.0     0.464872     0.837832     0.641133    Uiso  ? O
   O258       1.0     0.467237     0.822627     0.681530    Uiso  ? O
   O259       1.0     0.474383     0.798903     0.616268    Uiso  ? O
   O260       1.0     0.466121     0.780838     0.654515    Uiso  ? O
   O261       1.0     0.521537     0.806929     0.626025    Uiso  ? O
   O262       1.0     0.517366     0.781112     0.660078    Uiso  ? O
   O263       1.0     0.513187     0.846348     0.651536    Uiso  ? O
   O264       1.0     0.513954     0.820328     0.685221    Uiso  ? O
   O265       1.0     0.594774     0.886907     0.437798    Uiso  ? O
   O266       1.0     0.581932     0.827733     0.533295    Uiso  ? O
   O267       1.0     0.521618     0.797029     0.452276    Uiso  ? O
   O268       1.0     0.569527     0.131151     0.589227    Uiso  ? O
   O269       1.0     0.572074     0.189330     0.489763    Uiso  ? O
   O270       1.0     0.496035     0.843115     0.600671    Uiso  ? O
   Zn49       1.0     0.618638     0.885025     0.413885    Uiso  ? Zn
   Zn50       1.0     0.660651     0.881239     0.384902    Uiso  ? Zn
   Zn51       1.0     0.610560     0.806646     0.541664    Uiso  ? Zn
   Zn52       1.0     0.650855     0.776975     0.556508    Uiso  ? Zn
   Zn53       1.0     0.523955     0.770099     0.431844    Uiso  ? Zn
   Zn54       1.0     0.533099     0.727927     0.405915    Uiso  ? Zn
   Zn55       1.0     0.588618     0.139438     0.616979    Uiso  ? Zn
   Zn56       1.0     0.618630     0.152810     0.653506    Uiso  ? Zn
   Zn57       1.0     0.593808     0.217166     0.485041    Uiso  ? Zn
   Zn58       1.0     0.629394     0.255239     0.480951    Uiso  ? Zn
   Zn59       1.0     0.493237     0.825481     0.630763    Uiso  ? Zn
   Zn60       1.0     0.489527     0.797399     0.673728    Uiso  ? Zn
   C481       1.0     0.336610     0.143577     0.575169    Uiso  ? C
   C482       1.0     0.324467     0.159692     0.555491    Uiso  ? C
   C483       1.0     0.301622     0.172629     0.559806    Uiso  ? C
   H289       1.0     0.291665     0.170410     0.578220    Uiso  ? H
   C484       1.0     0.288682     0.185593     0.540026    Uiso  ? C
   H290       1.0     0.271652     0.195550     0.544533    Uiso  ? H
   C485       1.0     0.301741     0.190223     0.517928    Uiso  ? C
   H291       1.0     0.292360     0.199784     0.501779    Uiso  ? H
   C486       1.0     0.325890     0.179666     0.513196    Uiso  ? C
   C487       1.0     0.336653     0.163056     0.531996    Uiso  ? C
   H292       1.0     0.352631     0.152719     0.528078    Uiso  ? H
   C488       1.0     0.342041     0.187741     0.491582    Uiso  ? C
   C489       1.0     0.378484     0.156440     0.621928    Uiso  ? C
   C490       1.0     0.388161     0.180827     0.628624    Uiso  ? C
   C491       1.0     0.377724     0.193363     0.649332    Uiso  ? C
   H293       1.0     0.362384     0.185000     0.660328    Uiso  ? H
   C492       1.0     0.385430     0.217508     0.654925    Uiso  ? C
   H294       1.0     0.374953     0.229101     0.668624    Uiso  ? H
   C493       1.0     0.404271     0.229292     0.641088    Uiso  ? C
   H295       1.0     0.410610     0.247653     0.647941    Uiso  ? H
   C494       1.0     0.417828     0.216416     0.622075    Uiso  ? C
   C495       1.0     0.409736     0.192264     0.616327    Uiso  ? C
   H296       1.0     0.419619     0.181883     0.602701    Uiso  ? H
   C496       1.0     0.439812     0.228404     0.609615    Uiso  ? C
   C497       1.0     0.380552     0.889493     0.641103    Uiso  ? C
   C498       1.0     0.395364     0.874717     0.659498    Uiso  ? C
   C499       1.0     0.388630     0.877050     0.685025    Uiso  ? C
   H297       1.0     0.374451     0.888909     0.691260    Uiso  ? H
   C500       1.0     0.404091     0.867406     0.703841    Uiso  ? C
   H298       1.0     0.399057     0.870978     0.722642    Uiso  ? H
   C501       1.0     0.426325     0.853871     0.697666    Uiso  ? C
   H299       1.0     0.438745     0.845048     0.711777    Uiso  ? H
   C502       1.0     0.433879     0.851238     0.672125    Uiso  ? C
   C503       1.0     0.417822     0.861609     0.653357    Uiso  ? C
   H300       1.0     0.423605     0.862194     0.632939    Uiso  ? H
   C504       1.0     0.455674     0.836608     0.664587    Uiso  ? C
   C505       1.0     0.341436     0.871366     0.588753    Uiso  ? C
   C506       1.0     0.332131     0.846153     0.579631    Uiso  ? C
   C507       1.0     0.306939     0.840601     0.580804    Uiso  ? C
   H301       1.0     0.294984     0.852417     0.590243    Uiso  ? H
   C508       1.0     0.296230     0.818543     0.568848    Uiso  ? C
   H302       1.0     0.275021     0.813889     0.568673    Uiso  ? H
   C509       1.0     0.313256     0.802390     0.555782    Uiso  ? C
   H303       1.0     0.306195     0.786188     0.545381    Uiso  ? H
   C510       1.0     0.338637     0.807817     0.554919    Uiso  ? C
   C511       1.0     0.347865     0.830523     0.565966    Uiso  ? C
   H304       1.0     0.366944     0.833863     0.565511    Uiso  ? H
   C512       1.0     0.356649     0.789858     0.542865    Uiso  ? C
   C513       1.0     0.395819     0.220642     0.421857    Uiso  ? C
   C514       1.0     0.411485     0.230682     0.399874    Uiso  ? C
   C515       1.0     0.404677     0.252525     0.386387    Uiso  ? C
   H305       1.0     0.390265     0.264613     0.392613    Uiso  ? H
   C516       1.0     0.417023     0.260642     0.364563    Uiso  ? C
   H306       1.0     0.412180     0.279387     0.357993    Uiso  ? H
   C517       1.0     0.436459     0.246282     0.355569    Uiso  ? C
   H307       1.0     0.445829     0.254969     0.339513    Uiso  ? H
   C518       1.0     0.443201     0.222667     0.367599    Uiso  ? C
   C519       1.0     0.431402     0.216439     0.390359    Uiso  ? C
   H308       1.0     0.437406     0.199848     0.400696    Uiso  ? H
   C520       1.0     0.467515     0.209994     0.361743    Uiso  ? C
   C521       1.0     0.386880     0.240889     0.484094    Uiso  ? C
   C522       1.0     0.396002     0.260368     0.502718    Uiso  ? C
   C523       1.0     0.384727     0.284419     0.503853    Uiso  ? C
   H309       1.0     0.371081     0.288333     0.489283    Uiso  ? H
   C524       1.0     0.393107     0.302361     0.521721    Uiso  ? C
   H310       1.0     0.383899     0.320356     0.522063    Uiso  ? H
   C525       1.0     0.411598     0.297034     0.539032    Uiso  ? C
   H311       1.0     0.416135     0.310948     0.553493    Uiso  ? H
   C526       1.0     0.421769     0.272203     0.538339    Uiso  ? C
   C527       1.0     0.415652     0.253908     0.519676    Uiso  ? C
   H312       1.0     0.424321     0.235501     0.519088    Uiso  ? H
   C528       1.0     0.440542     0.264958     0.555969    Uiso  ? C
   C529       1.0     0.350662     0.173695     0.426066    Uiso  ? C
   C530       1.0     0.341948     0.154070     0.408299    Uiso  ? C
   C531       1.0     0.318249     0.154569     0.396882    Uiso  ? C
   H313       1.0     0.306875     0.170895     0.399140    Uiso  ? H
   C532       1.0     0.310691     0.137637     0.378411    Uiso  ? C
   H314       1.0     0.296043     0.142235     0.365305    Uiso  ? H
   C533       1.0     0.325327     0.116513     0.374743    Uiso  ? C
   H315       1.0     0.317121     0.896097     0.363020    Uiso  ? H
   C534       1.0     0.349221     0.114464     0.386281    Uiso  ? C
   C535       1.0     0.357310     0.133145     0.402494    Uiso  ? C
   H316       1.0     0.375269     0.131426     0.412246    Uiso  ? H
   C536       1.0     0.363600     0.887118     0.382503    Uiso  ? C
   C537       1.0     0.508174     0.269787     0.564564    Uiso  ? C
   C538       1.0     0.531295     0.281032     0.554273    Uiso  ? C
   C539       1.0     0.539203     0.305723     0.561976    Uiso  ? C
   H317       1.0     0.528910     0.317422     0.575010    Uiso  ? H
   C540       1.0     0.559561     0.316181     0.549947    Uiso  ? C
   H318       1.0     0.567895     0.334285     0.556368    Uiso  ? H
   C541       1.0     0.575200     0.301860     0.534389    Uiso  ? C
   H319       1.0     0.591496     0.311169     0.524457    Uiso  ? H
   C542       1.0     0.567940     0.278463     0.527190    Uiso  ? C
   C543       1.0     0.544960     0.268268     0.536093    Uiso  ? C
   H320       1.0     0.540202     0.250192     0.528979    Uiso  ? H
   C544       1.0     0.584141     0.263262     0.509277    Uiso  ? C
   C545       1.0     0.503782     0.237105     0.621639    Uiso  ? C
   C546       1.0     0.521047     0.228892     0.641555    Uiso  ? C
   C547       1.0     0.525124     0.242832     0.663316    Uiso  ? C
   H321       1.0     0.515743     0.260718     0.668299    Uiso  ? H
   C548       1.0     0.542973     0.235941     0.680557    Uiso  ? C
   H322       1.0     0.547326     0.248586     0.697326    Uiso  ? H
   C549       1.0     0.558966     0.215417     0.674956    Uiso  ? C
   H323       1.0     0.574197     0.211054     0.689324    Uiso  ? H
   C550       1.0     0.554417     0.200203     0.653710    Uiso  ? C
   C551       1.0     0.535680     0.206926     0.637797    Uiso  ? C
   H324       1.0     0.532359     0.196285     0.619092    Uiso  ? H
   C552       1.0     0.572402     0.179826     0.647411    Uiso  ? C
   C553       1.0     0.421385     0.880276     0.346376    Uiso  ? C
   C554       1.0     0.435787     0.896136     0.328464    Uiso  ? C
   C555       1.0     0.431589     0.893433     0.302554    Uiso  ? C
   H325       1.0     0.418036     0.881613     0.296092    Uiso  ? H
   C556       1.0     0.446792     0.112969     0.285682    Uiso  ? C
   H326       1.0     0.446277     0.107799     0.266100    Uiso  ? H
   C557       1.0     0.463627     0.130859     0.294611    Uiso  ? C
   H327       1.0     0.472774     0.142325     0.280489    Uiso  ? H
   C558       1.0     0.468522     0.132663     0.321112    Uiso  ? C
   C559       1.0     0.453389     0.119571     0.338047    Uiso  ? C
   H328       1.0     0.456115     0.120683     0.358174    Uiso  ? H
   C560       1.0     0.484741     0.154064     0.331998    Uiso  ? C
   C561       1.0     0.368702     0.825614     0.400866    Uiso  ? C
   C562       1.0     0.355013     0.807417     0.417149    Uiso  ? C
   C563       1.0     0.330161     0.797352     0.411040    Uiso  ? C
   H329       1.0     0.321109     0.802753     0.392403    Uiso  ? H
   C564       1.0     0.319907     0.778315     0.425780    Uiso  ? C
   H330       1.0     0.301695     0.770878     0.420776    Uiso  ? H
   C565       1.0     0.333042     0.769287     0.446584    Uiso  ? C
   H331       1.0     0.325051     0.754188     0.458128    Uiso  ? H
   C566       1.0     0.355404     0.779663     0.454467    Uiso  ? C
   C567       1.0     0.366641     0.797953     0.439489    Uiso  ? C
   H332       1.0     0.384519     0.806958     0.445745    Uiso  ? H
   C568       1.0     0.366283     0.772765     0.479364    Uiso  ? C
   C569       1.0     0.410102     0.753115     0.558153    Uiso  ? C
   C570       1.0     0.419876     0.749018     0.583743    Uiso  ? C
   C571       1.0     0.412212     0.726932     0.598381    Uiso  ? C
   H333       1.0     0.400850     0.713250     0.588201    Uiso  ? H
   C572       1.0     0.421077     0.725084     0.623943    Uiso  ? C
   H334       1.0     0.414367     0.710050     0.635625    Uiso  ? H
   C573       1.0     0.436720     0.742607     0.634239    Uiso  ? C
   H335       1.0     0.443853     0.740638     0.652534    Uiso  ? H
   C574       1.0     0.444805     0.763144     0.619495    Uiso  ? C
   C575       1.0     0.436446     0.765893     0.594662    Uiso  ? C
   H336       1.0     0.444034     0.781609     0.584172    Uiso  ? H
   C576       1.0     0.462484     0.782085     0.630219    Uiso  ? C
   O271       1.0     0.356783     0.130756     0.569746    Uiso  ? O
   O272       1.0     0.325178     0.140056     0.597367    Uiso  ? O
   O273       1.0     0.389661     0.142898     0.604912    Uiso  ? O
   O274       1.0     0.356526     0.148442     0.631828    Uiso  ? O
   O275       1.0     0.390966     0.893348     0.619716    Uiso  ? O
   O276       1.0     0.356977     0.896676     0.645138    Uiso  ? O
   O277       1.0     0.364089     0.879158     0.581903    Uiso  ? O
   O278       1.0     0.327713     0.885460     0.603608    Uiso  ? O
   O279       1.0     0.403798     0.201302     0.435835    Uiso  ? O
   O280       1.0     0.373115     0.230057     0.425860    Uiso  ? O
   O281       1.0     0.397311     0.217935     0.482845    Uiso  ? O
   O282       1.0     0.365672     0.244693     0.471587    Uiso  ? O
   O283       1.0     0.364647     0.178221     0.488921    Uiso  ? O
   O284       1.0     0.333792     0.205441     0.477326    Uiso  ? O
   O285       1.0     0.370544     0.168211     0.440044    Uiso  ? O
   O286       1.0     0.339285     0.195280     0.426972    Uiso  ? O
   O287       1.0     0.502008     0.247774     0.557503    Uiso  ? O
   O288       1.0     0.495147     0.281774     0.582277    Uiso  ? O
   O289       1.0     0.499237     0.224171     0.600967    Uiso  ? O
   O290       1.0     0.493090     0.259596     0.623688    Uiso  ? O
   O291       1.0     0.451284     0.217497     0.591399    Uiso  ? O
   O292       1.0     0.445615     0.251639     0.615316    Uiso  ? O
   O293       1.0     0.451981     0.243074     0.553343    Uiso  ? O
   O294       1.0     0.447036     0.280222     0.574512    Uiso  ? O
   O295       1.0     0.426234     0.878149     0.370117    Uiso  ? O
   O296       1.0     0.401913     0.867814     0.338362    Uiso  ? O
   O297       1.0     0.383712     0.883246     0.396138    Uiso  ? O
   O298       1.0     0.358864     0.871910     0.362408    Uiso  ? O
   O299       1.0     0.387959     0.837122     0.410077    Uiso  ? O
   O300       1.0     0.364101     0.826364     0.376407    Uiso  ? O
   O301       1.0     0.425129     0.830081     0.382076    Uiso  ? O
   O302       1.0     0.402450     0.818911     0.348106    Uiso  ? O
   O303       1.0     0.385433     0.787012     0.487256    Uiso  ? O
   O304       1.0     0.358944     0.753967     0.492863    Uiso  ? O
   O305       1.0     0.377781     0.798514     0.532683    Uiso  ? O
   O306       1.0     0.350343     0.766068     0.540164    Uiso  ? O
   O307       1.0     0.417726     0.772028     0.545345    Uiso  ? O
   O308       1.0     0.391450     0.740463     0.550157    Uiso  ? O
   O309       1.0     0.420218     0.758002     0.499607    Uiso  ? O
   O310       1.0     0.394047     0.723367     0.503354    Uiso  ? O
   O311       1.0     0.537234     0.165073     0.362053    Uiso  ? O
   O312       1.0     0.537758     0.183859     0.323872    Uiso  ? O
   O313       1.0     0.527916     0.204954     0.387379    Uiso  ? O
   O314       1.0     0.526628     0.226863     0.349470    Uiso  ? O
   O315       1.0     0.479147     0.195722     0.378969    Uiso  ? O
   O316       1.0     0.479204     0.215778     0.340994    Uiso  ? O
   O317       1.0     0.489975     0.152931     0.355309    Uiso  ? O
   O318       1.0     0.490889     0.174528     0.319081    Uiso  ? O
   O319       1.0     0.404696     0.111739     0.566466    Uiso  ? O
   O320       1.0     0.413789     0.166909     0.472467    Uiso  ? O
   O321       1.0     0.483133     0.200139     0.556283    Uiso  ? O
   O322       1.0     0.430441     0.864656     0.418064    Uiso  ? O
   O323       1.0     0.425020     0.807400     0.511793    Uiso  ? O
   O324       1.0     0.506054     0.163122     0.406720    Uiso  ? O
   Zn61       1.0     0.379347     0.114962     0.590298    Uiso  ? Zn
   Zn62       1.0     0.337492     0.120135     0.622158    Uiso  ? Zn
   Zn63       1.0     0.387330     0.188928     0.463848    Uiso  ? Zn
   Zn64       1.0     0.349359     0.221662     0.449633    Uiso  ? Zn
   Zn65       1.0     0.476769     0.230928     0.572290    Uiso  ? Zn
   Zn66       1.0     0.468608     0.271800     0.601160    Uiso  ? Zn
   Zn67       1.0     0.408691     0.858447     0.392902    Uiso  ? Zn
   Zn68       1.0     0.379067     0.844564     0.352725    Uiso  ? Zn
   Zn69       1.0     0.402912     0.781568     0.515556    Uiso  ? Zn
   Zn70       1.0     0.371394     0.743185     0.523582    Uiso  ? Zn
   Zn71       1.0     0.508249     0.176636     0.375351    Uiso  ? Zn
   Zn72       1.0     0.508841     0.202834     0.330408    Uiso  ? Zn
   H337       1.0     0.407930     0.149908     0.478756    Uiso  ? H
   H338       1.0     0.421699     0.162772     0.455901    Uiso  ? H
   H339       1.0     0.575171     0.832783     0.550072    Uiso  ? H
   H340       1.0     0.588485     0.843814     0.526195    Uiso  ? H
   H341       1.0     0.496925     0.829165     0.588422    Uiso  ? H
   H342       1.0     0.478771     0.849888     0.596462    Uiso  ? H
   H343       1.0     0.561465     0.113090     0.587196    Uiso  ? H
   H344       1.0     0.580446     0.133962     0.572982    Uiso  ? H
   H345       1.0     0.493674     0.148451     0.406560    Uiso  ? H
   H346       1.0     0.498878     0.176666     0.418627    Uiso  ? H
   H347       1.0     0.579828     0.893864     0.429647    Uiso  ? H
   H348       1.0     0.600940     0.897260     0.452251    Uiso  ? H
   H349       1.0     0.573080     0.180282     0.473610    Uiso  ? H
   H350       1.0     0.556757     0.199247     0.488074    Uiso  ? H
   H351       1.0     0.418370     0.871755     0.429811    Uiso  ? H
   H352       1.0     0.433375     0.848597     0.425852    Uiso  ? H
   H353       1.0     0.510881     0.792649     0.467322    Uiso  ? H
   H354       1.0     0.512696     0.810060     0.442373    Uiso  ? H
   H355       1.0     0.414902     0.822274     0.515629    Uiso  ? H
   H356       1.0     0.425673     0.807001     0.493460    Uiso  ? H
   H357       1.0     0.500348     0.194215     0.555181    Uiso  ? H
   H358       1.0     0.475545     0.200271     0.538817    Uiso  ? H
   H359       1.0     0.416207     0.895636     0.573920    Uiso  ? H
   H360       1.0     0.412680     0.128374     0.566376    Uiso  ? H
   C577       1.0     0.511952     0.348540     0.197064    Uiso  ? C
   C578       1.0     0.529370     0.355697     0.219275    Uiso  ? C
   C579       1.0     0.543559     0.337971     0.232693    Uiso  ? C
   H361       1.0     0.542983     0.318465     0.227330    Uiso  ? H
   C580       1.0     0.563074     0.346290     0.248442    Uiso  ? C
   H362       1.0     0.576685     0.332187     0.254588    Uiso  ? H
   C581       1.0     0.565273     0.371297     0.254379    Uiso  ? C
   H363       1.0     0.580680     0.377959     0.266151    Uiso  ? H
   C582       1.0     0.549375     0.389558     0.241955    Uiso  ? C
   C583       1.0     0.532291     0.381235     0.224096    Uiso  ? C
   H364       1.0     0.517271     0.394352     0.216625    Uiso  ? H
   C584       1.0     0.553178     0.416533     0.246343    Uiso  ? C
   C585       1.0     0.445377     0.356485     0.186019    Uiso  ? C
   C586       1.0     0.422432     0.363189     0.201163    Uiso  ? C
   C587       1.0     0.404560     0.345037     0.209190    Uiso  ? C
   H365       1.0     0.406643     0.325237     0.204061    Uiso  ? H
   C588       1.0     0.382158     0.352713     0.221663    Uiso  ? C
   H366       1.0     0.367301     0.339244     0.226195    Uiso  ? H
   C589       1.0     0.380021     0.377937     0.229075    Uiso  ? C
   H367       1.0     0.362637     0.381401     0.239546    Uiso  ? H
   C590       1.0     0.396409     0.397063     0.220513    Uiso  ? C
   C591       1.0     0.418610     0.389034     0.207832    Uiso  ? C
   H368       1.0     0.432583     0.403128     0.203591    Uiso  ? H
   C592       1.0     0.392744     0.424236     0.226027    Uiso  ? C
   C593       1.0     0.452754     0.325889     0.127353    Uiso  ? C
   C594       1.0     0.440353     0.318038     0.104413    Uiso  ? C
   C595       1.0     0.432154     0.293239     0.101889    Uiso  ? C
   H369       1.0     0.435619     0.280361     0.117942    Uiso  ? H
   C596       1.0     0.419568     0.284574     0.880139    Uiso  ? C
   H370       1.0     0.414220     0.265293     0.878127    Uiso  ? H
   C597       1.0     0.413081     0.302278     0.861729    Uiso  ? C
   H371       1.0     0.402304     0.296539     0.845562    Uiso  ? H
   C598       1.0     0.421451     0.327364     0.864723    Uiso  ? C
   C599       1.0     0.436014     0.334193     0.885747    Uiso  ? C
   H372       1.0     0.442383     0.352951     0.885124    Uiso  ? H
   C600       1.0     0.418446     0.344903     0.843022    Uiso  ? C
   C601       1.0     0.519270     0.326606     0.138584    Uiso  ? C
   C602       1.0     0.540589     0.319298     0.122125    Uiso  ? C
   C603       1.0     0.552639     0.295906     0.125575    Uiso  ? C
   H373       1.0     0.548051     0.282530     0.140709    Uiso  ? H
   C604       1.0     0.571484     0.287551     0.108643    Uiso  ? C
   H374       1.0     0.578810     0.268837     0.109819    Uiso  ? H
   C605       1.0     0.579042     0.301904     0.889663    Uiso  ? C
   H375       1.0     0.591547     0.294355     0.875243    Uiso  ? H
   C606       1.0     0.568371     0.325161     0.886507    Uiso  ? C
   C607       1.0     0.548440     0.334083     0.102254    Uiso  ? C
   H376       1.0     0.540444     0.350627     0.898925    Uiso  ? H
   C608       1.0     0.575733     0.340360     0.864704    Uiso  ? C
   C609       1.0     0.566658     0.507185     0.264285    Uiso  ? C
   C610       1.0     0.571341     0.533903     0.267390    Uiso  ? C
   C611       1.0     0.571335     0.544030     0.291392    Uiso  ? C
   H377       1.0     0.567940     0.532713     0.306814    Uiso  ? H
   C612       1.0     0.575702     0.569668     0.294324    Uiso  ? C
   H378       1.0     0.578394     0.575937     0.313284    Uiso  ? H
   C613       1.0     0.577506     0.586287     0.275124    Uiso  ? C
   H379       1.0     0.575755     0.607310     0.276779    Uiso  ? H
   C614       1.0     0.576637     0.576222     0.250427    Uiso  ? C
   C615       1.0     0.573819     0.549994     0.247159    Uiso  ? C
   H380       1.0     0.571127     0.542528     0.227746    Uiso  ? H
   C616       1.0     0.575547     0.593785     0.227878    Uiso  ? C
   C617       1.0     0.516578     0.461782     0.275475    Uiso  ? C
   C618       1.0     0.491263     0.463307     0.287223    Uiso  ? C
   C619       1.0     0.487671     0.460337     0.313384    Uiso  ? C
   H381       1.0     0.503710     0.459064     0.325049    Uiso  ? H
   C620       1.0     0.463967     0.461301     0.323677    Uiso  ? C
   H382       1.0     0.461136     0.457419     0.344400    Uiso  ? H
   C621       1.0     0.442285     0.464988     0.307751    Uiso  ? C
   H383       1.0     0.424077     0.464954     0.316728    Uiso  ? H
   C622       1.0     0.445478     0.467383     0.280715    Uiso  ? C
   C623       1.0     0.470199     0.467277     0.270996    Uiso  ? C
   H384       1.0     0.472105     0.467311     0.251071    Uiso  ? H
   C624       1.0     0.423246     0.469540     0.264062    Uiso  ? C
   C625       1.0     0.602821     0.457659     0.237138    Uiso  ? C
   C626       1.0     0.629822     0.457853     0.227015    Uiso  ? C
   C627       1.0     0.650065     0.452154     0.242939    Uiso  ? C
   H385       1.0     0.646293     0.444798     0.260998    Uiso  ? H
   C628       1.0     0.674940     0.456244     0.235126    Uiso  ? C
   H386       1.0     0.690537     0.451483     0.246830    Uiso  ? H
   C629       1.0     0.678952     0.462120     0.209171    Uiso  ? C
   H387       1.0     0.698044     0.462995     0.201111    Uiso  ? H
   C630       1.0     0.658445     0.466369     0.192508    Uiso  ? C
   C631       1.0     0.634413     0.462122     0.201596    Uiso  ? C
   H388       1.0     0.618617     0.463715     0.187538    Uiso  ? H
   C632       1.0     0.661343     0.474560     0.165357    Uiso  ? C
   C633       1.0     0.380594     0.515980     0.237344    Uiso  ? C
   C634       1.0     0.379147     0.543992     0.240646    Uiso  ? C
   C635       1.0     0.363557     0.552846     0.259538    Uiso  ? C
   H389       1.0     0.354945     0.541334     0.274093    Uiso  ? H
   C636       1.0     0.357716     0.578860     0.259704    Uiso  ? C
   H390       1.0     0.345052     0.584974     0.274997    Uiso  ? H
   C637       1.0     0.367643     0.595439     0.241894    Uiso  ? C
   H391       1.0     0.363948     0.616107     0.242797    Uiso  ? H
   C638       1.0     0.384428     0.586652     0.223618    Uiso  ? C
   C639       1.0     0.390492     0.560704     0.223775    Uiso  ? C
   H392       1.0     0.403953     0.554187     0.209995    Uiso  ? H
   C640       1.0     0.394929     0.603539     0.204690    Uiso  ? C
   C641       1.0     0.352480     0.471309     0.202327    Uiso  ? C
   C642       1.0     0.332244     0.471052     0.184453    Uiso  ? C
   C643       1.0     0.308488     0.461414     0.191560    Uiso  ? C
   H393       1.0     0.306680     0.452016     0.209804    Uiso  ? H
   C644       1.0     0.286935     0.464875     0.175754    Uiso  ? C
   H394       1.0     0.268316     0.458469     0.183301    Uiso  ? H
   C645       1.0     0.290280     0.473828     0.151267    Uiso  ? C
   H395       1.0     0.273600     0.477941     0.140054    Uiso  ? H
   C646       1.0     0.314397     0.483079     0.143041    Uiso  ? C
   C647       1.0     0.335031     0.480162     0.160064    Uiso  ? C
   H396       1.0     0.353069     0.485554     0.153669    Uiso  ? H
   C648       1.0     0.317901     0.494145     0.118478    Uiso  ? C
   C649       1.0     0.669229     0.535731     0.142367    Uiso  ? C
   C650       1.0     0.668632     0.561244     0.155655    Uiso  ? C
   C651       1.0     0.692674     0.573374     0.159067    Uiso  ? C
   H397       1.0     0.710557     0.565298     0.152548    Uiso  ? H
   C652       1.0     0.691873     0.596210     0.171147    Uiso  ? C
   H398       1.0     0.709303     0.605606     0.176319    Uiso  ? H
   C653       1.0     0.669269     0.607612     0.179079    Uiso  ? C
   H399       1.0     0.671708     0.624685     0.190834    Uiso  ? H
   C654       1.0     0.646340     0.596155     0.174840    Uiso  ? C
   C655       1.0     0.646110     0.571910     0.163848    Uiso  ? C
   H400       1.0     0.628627     0.562115     0.161402    Uiso  ? H
   C656       1.0     0.621044     0.606743     0.182417    Uiso  ? C
   C657       1.0     0.670323     0.450074     0.105083    Uiso  ? C
   C658       1.0     0.669601     0.423118     0.895036    Uiso  ? C
   C659       1.0     0.689825     0.406748     0.898530    Uiso  ? C
   H401       1.0     0.707070     0.413348     0.109799    Uiso  ? H
   C660       1.0     0.688699     0.381592     0.889762    Uiso  ? C
   H402       1.0     0.705444     0.367947     0.891981    Uiso  ? H
   C661       1.0     0.666679     0.372523     0.877530    Uiso  ? C
   H403       1.0     0.666526     0.353765     0.867736    Uiso  ? H
   C662       1.0     0.645977     0.389359     0.874017    Uiso  ? C
   C663       1.0     0.647878     0.414002     0.883643    Uiso  ? C
   H404       1.0     0.631842     0.426084     0.879563    Uiso  ? H
   C664       1.0     0.625247     0.381072     0.858328    Uiso  ? C
   C665       1.0     0.552016     0.355778     0.804425    Uiso  ? C
   C666       1.0     0.529597     0.346785     0.790090    Uiso  ? C
   C667       1.0     0.528082     0.322086     0.778448    Uiso  ? C
   H405       1.0     0.545219     0.312108     0.775584    Uiso  ? H
   C668       1.0     0.505204     0.312707     0.769197    Uiso  ? C
   H406       1.0     0.504381     0.295168     0.760691    Uiso  ? H
   C669       1.0     0.482816     0.326059     0.773580    Uiso  ? C
   H407       1.0     0.464702     0.318417     0.765678    Uiso  ? H
   C670       1.0     0.482769     0.348557     0.786856    Uiso  ? C
   C671       1.0     0.506226     0.358538     0.796656    Uiso  ? C
   H408       1.0     0.505503     0.375585     0.807963    Uiso  ? H
   C672       1.0     0.457435     0.359828     0.792317    Uiso  ? C
   O325       1.0     0.505206     0.366655     0.181081    Uiso  ? O
   O326       1.0     0.500926     0.326667     0.196932    Uiso  ? O
   O327       1.0     0.457960     0.372634     0.173079    Uiso  ? O
   O328       1.0     0.453100     0.333975     0.187659    Uiso  ? O
   O329       1.0     0.460454     0.349174     0.129980    Uiso  ? O
   O330       1.0     0.461020     0.308978     0.143886    Uiso  ? O
   O331       1.0     0.511211     0.350585     0.136796    Uiso  ? O
   O332       1.0     0.507771     0.311360     0.153300    Uiso  ? O
   O333       1.0     0.555724     0.500915     0.242782    Uiso  ? O
   O334       1.0     0.572922     0.490350     0.282015    Uiso  ? O
   O335       1.0     0.518934     0.464181     0.251048    Uiso  ? O
   O336       1.0     0.536311     0.460520     0.289620    Uiso  ? O
   O337       1.0     0.544981     0.432682     0.229185    Uiso  ? O
   O338       1.0     0.565345     0.424933     0.266935    Uiso  ? O
   O339       1.0     0.583398     0.461695     0.221933    Uiso  ? O
   O340       1.0     0.599294     0.456597     0.261383    Uiso  ? O
   O341       1.0     0.395600     0.507935     0.220307    Uiso  ? O
   O342       1.0     0.369770     0.499761     0.252446    Uiso  ? O
   O343       1.0     0.375883     0.474454     0.193398    Uiso  ? O
   O344       1.0     0.348048     0.467381     0.225889    Uiso  ? O
   O345       1.0     0.406558     0.441177     0.214572    Uiso  ? O
   O346       1.0     0.376079     0.432263     0.242353    Uiso  ? O
   O347       1.0     0.426939     0.476186     0.240041    Uiso  ? O
   O348       1.0     0.399624     0.466191     0.271312    Uiso  ? O
   O349       1.0     0.647955     0.524915     0.136639    Uiso  ? O
   O350       1.0     0.690405     0.524401     0.137107    Uiso  ? O
   O351       1.0     0.641876     0.480538     0.151052    Uiso  ? O
   O352       1.0     0.684287     0.480040     0.157134    Uiso  ? O
   O353       1.0     0.649115     0.462617     0.107683    Uiso  ? O
   O354       1.0     0.691459     0.459036     0.114406    Uiso  ? O
   O355       1.0     0.654115     0.508883     0.889170    Uiso  ? O
   O356       1.0     0.696223     0.500985     0.893281    Uiso  ? O
   O357       1.0     0.603913     0.393064     0.859382    Uiso  ? O
   O358       1.0     0.628428     0.362178     0.842087    Uiso  ? O
   O359       1.0     0.567498     0.363633     0.863094    Uiso  ? O
   O360       1.0     0.592979     0.332275     0.848721    Uiso  ? O
   O361       1.0     0.550006     0.376316     0.818024    Uiso  ? O
   O362       1.0     0.572729     0.341131     0.803568    Uiso  ? O
   O363       1.0     0.591647     0.405193     0.813840    Uiso  ? O
   O364       1.0     0.611520     0.372547     0.796114    Uiso  ? O
   O365       1.0     0.567963     0.630141     0.152429    Uiso  ? O
   O366       1.0     0.586390     0.660854     0.177005    Uiso  ? O
   O367       1.0     0.536199     0.618591     0.190889    Uiso  ? O
   O368       1.0     0.557277     0.649737     0.211579    Uiso  ? O
   O369       1.0     0.568481     0.585358     0.205931    Uiso  ? O
   O370       1.0     0.582677     0.617890     0.230755    Uiso  ? O
   O371       1.0     0.600981     0.597187     0.172711    Uiso  ? O
   O372       1.0     0.619907     0.626062     0.198292    Uiso  ? O
   O373       1.0     0.483653     0.394018     0.137229    Uiso  ? O
   O374       1.0     0.540043     0.477106     0.200973    Uiso  ? O
   O375       1.0     0.426978     0.477408     0.189465    Uiso  ? O
   O376       1.0     0.611465     0.496283     0.114125    Uiso  ? O
   O377       1.0     0.555123     0.411960     0.851996    Uiso  ? O
   O378       1.0     0.557437     0.580767     0.157095    Uiso  ? O
   Zn73       1.0     0.482835     0.363359     0.152963    Uiso  ? Zn
   Zn74       1.0     0.479244     0.316642     0.172800    Uiso  ? Zn
   Zn75       1.0     0.550218     0.467287     0.232886    Uiso  ? Zn
   Zn76       1.0     0.570385     0.456839     0.278711    Uiso  ? Zn
   Zn77       1.0     0.402979     0.474505     0.213880    Uiso  ? Zn
   Zn78       1.0     0.372001     0.464591     0.252526    Uiso  ? Zn
   Zn79       1.0     0.645618     0.494290     0.119857    Uiso  ? Zn
   Zn80       1.0     0.695375     0.491878     0.126947    Uiso  ? Zn
   Zn81       1.0     0.575477     0.387270     0.839361    Uiso  ? Zn
   Zn82       1.0     0.604096     0.348390     0.819896    Uiso  ? Zn
   Zn83       1.0     0.566854     0.605249     0.177148    Uiso  ? Zn
   Zn84       1.0     0.588640     0.641480     0.205901    Uiso  ? Zn
   C673       1.0     0.485579     0.646443     0.800776    Uiso  ? C
   C674       1.0     0.466066     0.639926     0.780847    Uiso  ? C
   C675       1.0     0.449577     0.657894     0.769722    Uiso  ? C
   H409       1.0     0.452061     0.677483     0.774607    Uiso  ? H
   C676       1.0     0.433428     0.650616     0.750133    Uiso  ? C
   H410       1.0     0.422602     0.664082     0.741142    Uiso  ? H
   C677       1.0     0.432273     0.625197     0.742470    Uiso  ? C
   H411       1.0     0.421801     0.621564     0.725546    Uiso  ? H
   C678       1.0     0.445808     0.606505     0.755477    Uiso  ? C
   C679       1.0     0.464001     0.614367     0.773536    Uiso  ? C
   H412       1.0     0.476242     0.600447     0.782273    Uiso  ? H
   C680       1.0     0.440764     0.579524     0.749504    Uiso  ? C
   C681       1.0     0.551313     0.646292     0.810119    Uiso  ? C
   C682       1.0     0.574167     0.635707     0.795041    Uiso  ? C
   C683       1.0     0.590818     0.652444     0.784755    Uiso  ? C
   H413       1.0     0.587749     0.672915     0.787445    Uiso  ? H
   C684       1.0     0.610641     0.644346     0.769991    Uiso  ? C
   H414       1.0     0.622603     0.658542     0.760763    Uiso  ? H
   C685       1.0     0.614848     0.619409     0.766471    Uiso  ? C
   H415       1.0     0.632437     0.614473     0.756548    Uiso  ? H
   C686       1.0     0.597764     0.601560     0.776646    Uiso  ? C
   C687       1.0     0.577758     0.609679     0.792202    Uiso  ? C
   H416       1.0     0.562757     0.596964     0.798877    Uiso  ? H
   C688       1.0     0.603135     0.574303     0.774012    Uiso  ? C
   C689       1.0     0.542488     0.671648     0.871002    Uiso  ? C
   C690       1.0     0.560749     0.677855     0.891938    Uiso  ? C
   C691       1.0     0.575904     0.699299     0.890549    Uiso  ? C
   H417       1.0     0.573655     0.711327     0.874028    Uiso  ? H
   C692       1.0     0.591290     0.708298     0.110353    Uiso  ? C
   H418       1.0     0.601759     0.726503     0.109027    Uiso  ? H
   C693       1.0     0.591372     0.693447     0.131471    Uiso  ? C
   H419       1.0     0.603053     0.698528     0.146888    Uiso  ? H
   C694       1.0     0.577538     0.670439     0.132672    Uiso  ? C
   C695       1.0     0.563656     0.662858     0.111115    Uiso  ? C
   H420       1.0     0.549932     0.647427     0.111161    Uiso  ? H
   C696       1.0     0.578343     0.652778     0.155004    Uiso  ? C
   C697       1.0     0.480470     0.674695     0.862909    Uiso  ? C
   C698       1.0     0.462095     0.684166     0.882030    Uiso  ? C
   C699       1.0     0.457176     0.710288     0.884688    Uiso  ? C
   H421       1.0     0.465025     0.724659     0.872851    Uiso  ? H
   C700       1.0     0.440128     0.720600     0.102545    Uiso  ? C
   H422       1.0     0.436580     0.740213     0.102639    Uiso  ? H
   C701       1.0     0.427035     0.704105     0.118859    Uiso  ? C
   H423       1.0     0.414828     0.712651     0.133998    Uiso  ? H
   C702       1.0     0.430747     0.677912     0.116445    Uiso  ? C
   C703       1.0     0.448456     0.667605     0.898090    Uiso  ? C
   H424       1.0     0.449818     0.646547     0.895646    Uiso  ? H
   C704       1.0     0.418300     0.660027     0.133174    Uiso  ? C
   C705       1.0     0.426500     0.488087     0.731732    Uiso  ? C
   C706       1.0     0.423319     0.459986     0.728236    Uiso  ? C
   C707       1.0     0.421808     0.449713     0.703669    Uiso  ? C
   H425       1.0     0.424766     0.460152     0.687210    Uiso  ? H
   C708       1.0     0.419256     0.423124     0.700839    Uiso  ? C
   H426       1.0     0.420684     0.414816     0.681607    Uiso  ? H
   C709       1.0     0.417307     0.408699     0.722248    Uiso  ? C
   H427       1.0     0.418470     0.388349     0.721989    Uiso  ? H
   C710       1.0     0.415250     0.418913     0.745951    Uiso  ? C
   C711       1.0     0.419154     0.444947     0.749009    Uiso  ? C
   H428       1.0     0.420050     0.453000     0.767824    Uiso  ? H
   C712       1.0     0.413954     0.402208     0.768302    Uiso  ? C
   C713       1.0     0.475116     0.534001     0.720914    Uiso  ? C
   C714       1.0     0.500457     0.536978     0.711531    Uiso  ? C
   C715       1.0     0.505219     0.536224     0.685210    Uiso  ? C
   H429       1.0     0.490206     0.537178     0.670568    Uiso  ? H
   C716       1.0     0.530001     0.536502     0.676739    Uiso  ? C
   H430       1.0     0.533387     0.539517     0.657099    Uiso  ? H
   C717       1.0     0.549964     0.536595     0.693174    Uiso  ? C
   H431       1.0     0.569810     0.537575     0.685931    Uiso  ? H
   C718       1.0     0.546249     0.535512     0.719142    Uiso  ? C
   C719       1.0     0.521648     0.534713     0.728529    Uiso  ? C
   H432       1.0     0.517836     0.533625     0.748671    Uiso  ? H
   C720       1.0     0.568148     0.532176     0.735988    Uiso  ? C
   C721       1.0     0.387211     0.536196     0.757670    Uiso  ? C
   C722       1.0     0.361050     0.538025     0.767775    Uiso  ? C
   C723       1.0     0.340822     0.541281     0.751276    Uiso  ? C
   H433       1.0     0.341221     0.544156     0.731139    Uiso  ? H
   C724       1.0     0.316337     0.541448     0.762179    Uiso  ? C
   H434       1.0     0.300796     0.545554     0.750107    Uiso  ? H
   C725       1.0     0.312325     0.535809     0.787734    Uiso  ? C
   H435       1.0     0.293079     0.531491     0.794019    Uiso  ? H
   C726       1.0     0.332975     0.533193     0.804068    Uiso  ? C
   C727       1.0     0.357092     0.534651     0.794117    Uiso  ? C
   H436       1.0     0.373472     0.532692     0.807266    Uiso  ? H
   C728       1.0     0.328572     0.525927     0.831652    Uiso  ? C
   C729       1.0     0.608129     0.483653     0.757268    Uiso  ? C
   C730       1.0     0.612272     0.455664     0.755455    Uiso  ? C
   C731       1.0     0.624815     0.446051     0.734743    Uiso  ? C
   H437       1.0     0.630529     0.460246     0.720935    Uiso  ? H
   C732       1.0     0.631234     0.420494     0.733599    Uiso  ? C
   H438       1.0     0.643372     0.414929     0.717478    Uiso  ? H
   C733       1.0     0.625723     0.405053     0.752481    Uiso  ? C
   H439       1.0     0.632189     0.386046     0.751784    Uiso  ? H
   C734       1.0     0.612298     0.413369     0.773986    Uiso  ? C
   C735       1.0     0.607923     0.439826     0.776343    Uiso  ? C
   H440       1.0     0.600873     0.446377     0.795130    Uiso  ? H
   C736       1.0     0.604442     0.396347     0.795045    Uiso  ? C
   C737       1.0     0.643724     0.524758     0.794004    Uiso  ? C
   C738       1.0     0.664970     0.522918     0.810432    Uiso  ? C
   C739       1.0     0.688869     0.532173     0.802665    Uiso  ? C
   H441       1.0     0.689727     0.540159     0.783988    Uiso  ? H
   C740       1.0     0.709643     0.531696     0.819277    Uiso  ? C
   H442       1.0     0.727995     0.536343     0.811481    Uiso  ? H
   C741       1.0     0.706821     0.524295     0.844595    Uiso  ? C
   H443       1.0     0.723159     0.525778     0.857312    Uiso  ? H
   C742       1.0     0.682517     0.515770     0.852888    Uiso  ? C
   C743       1.0     0.661828     0.515583     0.836166    Uiso  ? C
   H444       1.0     0.643618     0.507177     0.842083    Uiso  ? H
   C744       1.0     0.677941     0.508133     0.879128    Uiso  ? C
   C745       1.0     0.323625     0.464463     0.855162    Uiso  ? C
   C746       1.0     0.325639     0.439003     0.844129    Uiso  ? C
   C747       1.0     0.303469     0.426858     0.836584    Uiso  ? C
   H445       1.0     0.285372     0.436046     0.841845    Uiso  ? H
   C748       1.0     0.304317     0.401508     0.827009    Uiso  ? C
   H446       1.0     0.287307     0.391670     0.821836    Uiso  ? H
   C749       1.0     0.327839     0.390434     0.823113    Uiso  ? C
   H447       1.0     0.325537     0.371198     0.814771    Uiso  ? H
   C750       1.0     0.350398     0.402943     0.829668    Uiso  ? C
   C751       1.0     0.348966     0.427115     0.840054    Uiso  ? C
   H448       1.0     0.365325     0.436798     0.846422    Uiso  ? H
   C752       1.0     0.375355     0.391800     0.822331    Uiso  ? C
   C753       1.0     0.323918     0.552706     0.890613    Uiso  ? C
   C754       1.0     0.324424     0.579347     0.100584    Uiso  ? C
   C755       1.0     0.306850     0.597039     0.894201    Uiso  ? C
   H449       1.0     0.292870     0.592842     0.879510    Uiso  ? H
   C756       1.0     0.308054     0.622069     0.105316    Uiso  ? C
   H450       1.0     0.296574     0.637708     0.100655    Uiso  ? H
   C757       1.0     0.325548     0.626721     0.124831    Uiso  ? C
   H451       1.0     0.326744     0.645666     0.130476    Uiso  ? H
   C758       1.0     0.345156     0.608515     0.129657    Uiso  ? C
   C759       1.0     0.344019     0.585099     0.117702    Uiso  ? C
   H452       1.0     0.357489     0.570652     0.122520    Uiso  ? H
   C760       1.0     0.368461     0.616364     0.144018    Uiso  ? C
   C761       1.0     0.442510     0.646311     0.190802    Uiso  ? C
   C762       1.0     0.466444     0.654480     0.203829    Uiso  ? C
   C763       1.0     0.466774     0.675894     0.219394    Uiso  ? C
   H453       1.0     0.449818     0.685354     0.224383    Uiso  ? H
   C764       1.0     0.488613     0.685320     0.229030    Uiso  ? C
   H454       1.0     0.488209     0.701475     0.242693    Uiso  ? H
   C765       1.0     0.511370     0.672250     0.225256    Uiso  ? C
   H455       1.0     0.527816     0.679508     0.233637    Uiso  ? H
   C766       1.0     0.512129     0.650474     0.210829    Uiso  ? C
   C767       1.0     0.489186     0.641539     0.199903    Uiso  ? C
   H456       1.0     0.489501     0.625405     0.187929    Uiso  ? H
   C768       1.0     0.536622     0.638481     0.205912    Uiso  ? C
   O379       1.0     0.491050     0.629916     0.817784    Uiso  ? O
   O380       1.0     0.493863     0.669455     0.802697    Uiso  ? O
   O381       1.0     0.539620     0.631374     0.826081    Uiso  ? O
   O382       1.0     0.544148     0.669899     0.806479    Uiso  ? O
   O383       1.0     0.532234     0.649750     0.870444    Uiso  ? O
   O384       1.0     0.537729     0.687276     0.852176    Uiso  ? O
   O385       1.0     0.486465     0.650680     0.862312    Uiso  ? O
   O386       1.0     0.492357     0.690183     0.848490    Uiso  ? O
   O387       1.0     0.434610     0.495531     0.754044    Uiso  ? O
   O388       1.0     0.419815     0.505452     0.713717    Uiso  ? O
   O389       1.0     0.471903     0.529866     0.745458    Uiso  ? O
   O390       1.0     0.456388     0.543350     0.707139    Uiso  ? O
   O391       1.0     0.448574     0.563001     0.765812    Uiso  ? O
   O392       1.0     0.427683     0.572051     0.729454    Uiso  ? O
   O393       1.0     0.407639     0.533756     0.771898    Uiso  ? O
   O394       1.0     0.391133     0.539160     0.732482    Uiso  ? O
   O395       1.0     0.596487     0.491217     0.776549    Uiso  ? O
   O396       1.0     0.619008     0.498656     0.740983    Uiso  ? O
   O397       1.0     0.620615     0.521010     0.802266    Uiso  ? O
   O398       1.0     0.646818     0.530537     0.769662    Uiso  ? O
   O399       1.0     0.591634     0.558010     0.789113    Uiso  ? O
   O400       1.0     0.617066     0.566415     0.755457    Uiso  ? O
   O401       1.0     0.565381     0.525321     0.760187    Uiso  ? O
   O402       1.0     0.591039     0.536602     0.727512    Uiso  ? O
   O403       1.0     0.345144     0.476071     0.861901    Uiso  ? O
   O404       1.0     0.302111     0.475653     0.858289    Uiso  ? O
   O405       1.0     0.348108     0.521662     0.845457    Uiso  ? O
   O406       1.0     0.306167     0.521241     0.839657    Uiso  ? O
   O407       1.0     0.344413     0.538540     0.890052    Uiso  ? O
   O408       1.0     0.301998     0.542509     0.882989    Uiso  ? O
   O409       1.0     0.340898     0.496776     0.108709    Uiso  ? O
   O410       1.0     0.298197     0.498973     0.103270    Uiso  ? O
   O411       1.0     0.390245     0.604218     0.141785    Uiso  ? O
   O412       1.0     0.367305     0.636284     0.157627    Uiso  ? O
   O413       1.0     0.428492     0.636824     0.136028    Uiso  ? O
   O414       1.0     0.401318     0.668525     0.149179    Uiso  ? O
   O415       1.0     0.443645     0.625665     0.177188    Uiso  ? O
   O416       1.0     0.422454     0.659983     0.191070    Uiso  ? O
   O417       1.0     0.407178     0.593762     0.185853    Uiso  ? O
   O418       1.0     0.386793     0.627137     0.202881    Uiso  ? O
   O419       1.0     0.426346     0.368618     0.843900    Uiso  ? O
   O420       1.0     0.407869     0.337695     0.822188    Uiso  ? O
   O421       1.0     0.456940     0.380987     0.805740    Uiso  ? O
   O422       1.0     0.437287     0.346883     0.785855    Uiso  ? O
   O423       1.0     0.422773     0.410076     0.790326    Uiso  ? O
   O424       1.0     0.407049     0.377757     0.765848    Uiso  ? O
   O425       1.0     0.396025     0.402416     0.828017    Uiso  ? O
   O426       1.0     0.376342     0.372028     0.807217    Uiso  ? O
   O427       1.0     0.508933     0.603734     0.856955    Uiso  ? O
   O428       1.0     0.454579     0.521687     0.794019    Uiso  ? O
   O429       1.0     0.570914     0.517792     0.811075    Uiso  ? O
   O430       1.0     0.383979     0.502137     0.880759    Uiso  ? O
   O431       1.0     0.437765     0.584290     0.145927    Uiso  ? O
   O432       1.0     0.443288     0.415917     0.838373    Uiso  ? O
   Zn85       1.0     0.511925     0.636208     0.845294    Uiso  ? Zn
   Zn86       1.0     0.518240     0.683341     0.824823    Uiso  ? Zn
   Zn87       1.0     0.441658     0.528793     0.762725    Uiso  ? Zn
   Zn88       1.0     0.422420     0.540337     0.716732    Uiso  ? Zn
   Zn89       1.0     0.591640     0.524157     0.784028    Uiso  ? Zn
   Zn90       1.0     0.620221     0.533421     0.744530    Uiso  ? Zn
   Zn91       1.0     0.348615     0.507483     0.877426    Uiso  ? Zn
   Zn92       1.0     0.297570     0.509542     0.871032    Uiso  ? Zn
   Zn93       1.0     0.419698     0.611080     0.158224    Uiso  ? Zn
   Zn94       1.0     0.391777     0.649594     0.177033    Uiso  ? Zn
   Zn95       1.0     0.427747     0.393175     0.819772    Uiso  ? Zn
   Zn96       1.0     0.404161     0.355710     0.793847    Uiso  ? Zn
   H457       1.0     0.473369     0.526260     0.794259    Uiso  ? H
   H458       1.0     0.446560     0.533068     0.805733    Uiso  ? H
   H459       1.0     0.521956     0.481500     0.203844    Uiso  ? H
   H460       1.0     0.547898     0.493306     0.198116    Uiso  ? H
   H461       1.0     0.558964     0.585981     0.139716    Uiso  ? H
   H462       1.0     0.538765     0.582288     0.160074    Uiso  ? H
   H463       1.0     0.600276     0.493929     0.130002    Uiso  ? H
   H464       1.0     0.605707     0.480910     0.104515    Uiso  ? H
   H465       1.0     0.441728     0.433058     0.830371    Uiso  ? H
   H466       1.0     0.432079     0.419818     0.852999    Uiso  ? H
   H467       1.0     0.494356     0.393323     0.121913    Uiso  ? H
   H468       1.0     0.492253     0.406327     0.148158    Uiso  ? H
   H469       1.0     0.539435     0.403929     0.856045    Uiso  ? H
   H470       1.0     0.561742     0.413875     0.869774    Uiso  ? H
   H471       1.0     0.390141     0.519699     0.879737    Uiso  ? H
   H472       1.0     0.387490     0.499071     0.898621    Uiso  ? H
   H473       1.0     0.421789     0.492639     0.179043    Uiso  ? H
   H474       1.0     0.444036     0.481658     0.193330    Uiso  ? H
   H475       1.0     0.436658     0.571878     0.159496    Uiso  ? H
   H476       1.0     0.454902     0.592515     0.146808    Uiso  ? H
   H477       1.0     0.578354     0.529144     0.824407    Uiso  ? H
   H478       1.0     0.575381     0.501867     0.817431    Uiso  ? H
   H479       1.0     0.510171     0.606347     0.876342    Uiso  ? H
   H480       1.0     0.523641     0.594262     0.851135    Uiso  ? H
   C769       1.0     0.573830     0.455819     0.334505    Uiso  ? C
   C770       1.0     0.589197     0.443710     0.352917    Uiso  ? C
   C771       1.0     0.601230     0.432714     0.316486    Uiso  ? C
   N1         1.0     0.581845     0.448006     0.311708    Uiso  ? N
   H481       1.0     0.560875     0.471537     0.338128    Uiso  ? H
   H482       1.0     0.587835     0.445346     0.373041    Uiso  ? H
   H483       1.0     0.610175     0.422377     0.300644    Uiso  ? H
   N2         1.0     0.606274     0.429019     0.340754    Uiso  ? N
   C772       1.0     0.620912     0.407732     0.350407    Uiso  ? C
   H484       1.0     0.640227     0.408641     0.343312    Uiso  ? H
   H485       1.0     0.621569     0.409018     0.370710    Uiso  ? H
   C773       1.0     0.607679     0.383541     0.344770    Uiso  ? C
   C774       1.0     0.614348     0.369177     0.322665    Uiso  ? C
   C775       1.0     0.585087     0.377338     0.357608    Uiso  ? C
   C776       1.0     0.599748     0.350089     0.314527    Uiso  ? C
   H486       1.0     0.628978     0.374788     0.309230    Uiso  ? H
   C777       1.0     0.569132     0.359096     0.347705    Uiso  ? C
   H487       1.0     0.578523     0.390944     0.372674    Uiso  ? H
   C778       1.0     0.575889     0.345714     0.325498    Uiso  ? C
   H488       1.0     0.603945     0.341341     0.296577    Uiso  ? H
   H489       1.0     0.553588     0.351298     0.358660    Uiso  ? H
   C779       1.0     0.557054     0.327915     0.313494    Uiso  ? C
   C780       1.0     0.531327     0.333707     0.310560    Uiso  ? C
   C781       1.0     0.567661     0.307204     0.300138    Uiso  ? C
   C782       1.0     0.516196     0.318525     0.294218    Uiso  ? C
   H490       1.0     0.522544     0.349080     0.319172    Uiso  ? H
   C783       1.0     0.552008     0.292049     0.285988    Uiso  ? C
   H491       1.0     0.587201     0.300170     0.301666    Uiso  ? H
   C784       1.0     0.526367     0.296828     0.282977    Uiso  ? C
   H492       1.0     0.495946     0.322927     0.291201    Uiso  ? H
   H493       1.0     0.561671     0.278418     0.274937    Uiso  ? H
   C785       1.0     0.510815     0.280790     0.265524    Uiso  ? C
   H494       1.0     0.491122     0.287553     0.265790    Uiso  ? H
   H495       1.0     0.518662     0.281366     0.245519    Uiso  ? H
   N3         1.0     0.508606     0.254032     0.274049    Uiso  ? N
   C786       1.0     0.517959     0.233637     0.261174    Uiso  ? C
   C787       1.0     0.505979     0.245458     0.297883    Uiso  ? C
   C788       1.0     0.517640     0.212890     0.277249    Uiso  ? C
   H496       1.0     0.522746     0.234751     0.242187    Uiso  ? H
   H497       1.0     0.499494     0.257074     0.312086    Uiso  ? H
   H498       1.0     0.520579     0.192949     0.271412    Uiso  ? H
   N4         1.0     0.510786     0.220376     0.300076    Uiso  ? N
   C789       1.0     0.537144     0.675581     0.389007    Uiso  ? C
   C790       1.0     0.538058     0.662584     0.366274    Uiso  ? C
   C791       1.0     0.539267     0.702354     0.358847    Uiso  ? C
   N5         1.0     0.538638     0.701020     0.383907    Uiso  ? N
   H499       1.0     0.536369     0.666891     0.407623    Uiso  ? H
   H500       1.0     0.537404     0.642232     0.364178    Uiso  ? H
   H501       1.0     0.539885     0.719030     0.348200    Uiso  ? H
   N6         1.0     0.539157     0.679342     0.347637    Uiso  ? N
   C792       1.0     0.537367     0.673934     0.321274    Uiso  ? C
   H502       1.0     0.551670     0.686594     0.310535    Uiso  ? H
   H503       1.0     0.538462     0.652121     0.317963    Uiso  ? H
   C793       1.0     0.510352     0.681225     0.311680    Uiso  ? C
   C794       1.0     0.504031     0.706540     0.307804    Uiso  ? C
   C795       1.0     0.491579     0.663017     0.305788    Uiso  ? C
   C796       1.0     0.480568     0.713299     0.296814    Uiso  ? C
   H504       1.0     0.516616     0.722079     0.312523    Uiso  ? H
   C797       1.0     0.467498     0.669723     0.296770    Uiso  ? C
   H505       1.0     0.497008     0.642814     0.307379    Uiso  ? H
   C798       1.0     0.461666     0.694611     0.291328    Uiso  ? C
   H506       1.0     0.476956     0.732927     0.292584    Uiso  ? H
   H507       1.0     0.454889     0.655623     0.293104    Uiso  ? H
   C799       1.0     0.437623     0.702480     0.279682    Uiso  ? C
   C800       1.0     0.415888     0.687143     0.282863    Uiso  ? C
   C801       1.0     0.434797     0.725819     0.266741    Uiso  ? C
   C802       1.0     0.393176     0.693761     0.272519    Uiso  ? C
   H508       1.0     0.418023     0.670235     0.294063    Uiso  ? H
   C803       1.0     0.411908     0.732108     0.254299    Uiso  ? C
   H509       1.0     0.450313     0.737693     0.262609    Uiso  ? H
   C804       1.0     0.391911     0.714670     0.257173    Uiso  ? C
   H510       1.0     0.375905     0.682374     0.273779    Uiso  ? H
   H511       1.0     0.410971     0.749422     0.242040    Uiso  ? H
   C805       1.0     0.367452     0.719149     0.242104    Uiso  ? C
   H512       1.0     0.351673     0.719275     0.255384    Uiso  ? H
   H513       1.0     0.366779     0.737945     0.233985    Uiso  ? H
   N7         1.0     0.362508     0.700400     0.222832    Uiso  ? N
   C806       1.0     0.341236     0.688468     0.216032    Uiso  ? C
   C807       1.0     0.379441     0.692831     0.206430    Uiso  ? C
   C808       1.0     0.346242     0.672392     0.196227    Uiso  ? C
   H514       1.0     0.322871     0.693445     0.223960    Uiso  ? H
   H515       1.0     0.398893     0.701098     0.204788    Uiso  ? H
   H516       1.0     0.333115     0.659139     0.187102    Uiso  ? H
   N8         1.0     0.370846     0.674721     0.191103    Uiso  ? N
   C809       1.0     0.479448     0.788803     0.725875    Uiso  ? C
   C810       1.0     0.472621     0.770050     0.741846    Uiso  ? C
   C811       1.0     0.477306     0.754511     0.704580    Uiso  ? C
   N9         1.0     0.482891     0.779254     0.702300    Uiso  ? N
   H517       1.0     0.481696     0.809312     0.727875    Uiso  ? H
   H518       1.0     0.467407     0.771556     0.761594    Uiso  ? H
   H519       1.0     0.479935     0.742327     0.689912    Uiso  ? H
   N10        1.0     0.470307     0.748706     0.727724    Uiso  ? N
   C812       1.0     0.469362     0.722285     0.737545    Uiso  ? C
   H520       1.0     0.489066     0.715375     0.739780    Uiso  ? H
   H521       1.0     0.460675     0.722551     0.757019    Uiso  ? H
   C813       1.0     0.453051     0.707377     0.720277    Uiso  ? C
   C814       1.0     0.465405     0.689357     0.705577    Uiso  ? C
   C815       1.0     0.427836     0.713068     0.715950    Uiso  ? C
   C816       1.0     0.451704     0.673971     0.689309    Uiso  ? C
   H522       1.0     0.486545     0.688660     0.706199    Uiso  ? H
   C817       1.0     0.412996     0.696789     0.701419    Uiso  ? C
   H523       1.0     0.419600     0.729918     0.724717    Uiso  ? H
   C818       1.0     0.424338     0.676261     0.688351    Uiso  ? C
   H524       1.0     0.461058     0.659148     0.678691    Uiso  ? H
   H525       1.0     0.393479     0.697966     0.702513    Uiso  ? H
   C819       1.0     0.409543     0.655946     0.675087    Uiso  ? C
   C820       1.0     0.418739     0.644973     0.653506    Uiso  ? C
   C821       1.0     0.387379     0.646904     0.685792    Uiso  ? C
   C822       1.0     0.406022     0.625503     0.642210    Uiso  ? C
   H526       1.0     0.434901     0.653118     0.643544    Uiso  ? H
   C823       1.0     0.373742     0.626582     0.674129    Uiso  ? C
   H527       1.0     0.380766     0.656164     0.702995    Uiso  ? H
   C824       1.0     0.384164     0.615036     0.651820    Uiso  ? C
   H528       1.0     0.415163     0.617518     0.625763    Uiso  ? H
   H529       1.0     0.355457     0.619632     0.682813    Uiso  ? H
   C825       1.0     0.375733     0.590460     0.640423    Uiso  ? C
   H530       1.0     0.355772     0.586961     0.641753    Uiso  ? H
   H531       1.0     0.377966     0.589570     0.619614    Uiso  ? H
   N11        1.0     0.389211     0.570151     0.653512    Uiso  ? N
   C826       1.0     0.402623     0.552071     0.642329    Uiso  ? C
   C827       1.0     0.394370     0.568047     0.678347    Uiso  ? C
   C828       1.0     0.414770     0.537649     0.660783    Uiso  ? C
   H532       1.0     0.403288     0.549593     0.621816    Uiso  ? H
   H533       1.0     0.386926     0.581787     0.692539    Uiso  ? H
   H534       1.0     0.427332     0.522274     0.658442    Uiso  ? H
   N12        1.0     0.409522     0.548673     0.683598    Uiso  ? N
   C829       1.0     0.631984     0.301762     0.813098    Uiso  ? C
   C830       1.0     0.637651     0.285685     0.793547    Uiso  ? C
   C831       1.0     0.625036     0.320316     0.777790    Uiso  ? C
   N13        1.0     0.623330     0.324107     0.802944    Uiso  ? N
   H535       1.0     0.632082     0.297584     0.832931    Uiso  ? H
   H536       1.0     0.642145     0.265353     0.797636    Uiso  ? H
   H537       1.0     0.619739     0.335868     0.764667    Uiso  ? H
   N14        1.0     0.629968     0.296739     0.771966    Uiso  ? N
   C832       1.0     0.633021     0.287234     0.745734    Uiso  ? C
   H538       1.0     0.650350     0.296333     0.739041    Uiso  ? H
   H539       1.0     0.634740     0.266065     0.744406    Uiso  ? H
   C833       1.0     0.610732     0.296550     0.728221    Uiso  ? C
   C834       1.0     0.613059     0.319626     0.715863    Uiso  ? C
   C835       1.0     0.587458     0.284258     0.729218    Uiso  ? C
   C836       1.0     0.592654     0.330178     0.702577    Uiso  ? C
   H540       1.0     0.631615     0.327084     0.714081    Uiso  ? H
   C837       1.0     0.566221     0.295105     0.717538    Uiso  ? C
   H541       1.0     0.586124     0.268644     0.741933    Uiso  ? H
   C838       1.0     0.569061     0.317583     0.703633    Uiso  ? C
   H542       1.0     0.596255     0.346449     0.690569    Uiso  ? H
   H543       1.0     0.548442     0.286984     0.722429    Uiso  ? H
   C839       1.0     0.547751     0.326962     0.688238    Uiso  ? C
   C840       1.0     0.524518     0.332166     0.699753    Uiso  ? C
   C841       1.0     0.551631     0.333122     0.662249    Uiso  ? C
   C842       1.0     0.505303     0.342342     0.684875    Uiso  ? C
   H544       1.0     0.521265     0.327757     0.719779    Uiso  ? H
   C843       1.0     0.532816     0.344135     0.648127    Uiso  ? C
   H545       1.0     0.569187     0.329077     0.652284    Uiso  ? H
   C844       1.0     0.509661     0.349938     0.660005    Uiso  ? C
   H546       1.0     0.487228     0.344764     0.693691    Uiso  ? H
   H547       1.0     0.534739     0.350771     0.628415    Uiso  ? H
   C845       1.0     0.487274     0.360380     0.645525    Uiso  ? C
   H548       1.0     0.476338     0.371584     0.658646    Uiso  ? H
   H549       1.0     0.493842     0.373240     0.630646    Uiso  ? H
   N15        1.0     0.472332     0.338764     0.634928    Uiso  ? N
   C846       1.0     0.447397     0.333745     0.640716    Uiso  ? C
   C847       1.0     0.481125     0.319443     0.621399    Uiso  ? C
   C848       1.0     0.442383     0.309290     0.631037    Uiso  ? C
   H550       1.0     0.435237     0.348084     0.648189    Uiso  ? H
   H551       1.0     0.502530     0.317231     0.617279    Uiso  ? H
   H552       1.0     0.425101     0.296994     0.632487    Uiso  ? H
   N16        1.0     0.462567     0.302044     0.618103    Uiso  ? N
   C849       1.0     0.655570     0.298352     0.457793    Uiso  ? C
   C850       1.0     0.672284     0.317703     0.464167    Uiso  ? C
   C851       1.0     0.669575     0.293292     0.495241    Uiso  ? C
   N17        1.0     0.653586     0.282364     0.477783    Uiso  ? N
   H553       1.0     0.645335     0.295194     0.439683    Uiso  ? H
   H554       1.0     0.677431     0.333454     0.452311    Uiso  ? H
   H555       1.0     0.671606     0.286635     0.514524    Uiso  ? H
   N18        1.0     0.681285     0.313873     0.486699    Uiso  ? N
   C852       1.0     0.697746     0.330751     0.501082    Uiso  ? C
   H556       1.0     0.709191     0.318741     0.514216    Uiso  ? H
   H557       1.0     0.710578     0.340364     0.489104    Uiso  ? H
   C853       1.0     0.682178     0.348963     0.516494    Uiso  ? C
   C854       1.0     0.667614     0.341507     0.536782    Uiso  ? C
   C855       1.0     0.680852     0.374778     0.509756    Uiso  ? C
   C856       1.0     0.653603     0.359810     0.553294    Uiso  ? C
   H558       1.0     0.666405     0.320565     0.542440    Uiso  ? H
   C857       1.0     0.667488     0.391859     0.525346    Uiso  ? C
   H559       1.0     0.693035     0.381068     0.496167    Uiso  ? H
   C858       1.0     0.652672     0.384520     0.546303    Uiso  ? C
   H560       1.0     0.644109     0.353323     0.570284    Uiso  ? H
   H561       1.0     0.669152     0.411319     0.520327    Uiso  ? H
   C859       1.0     0.641816     0.404864     0.563937    Uiso  ? C
   C860       1.0     0.628982     0.425734     0.552964    Uiso  ? C
   C861       1.0     0.643633     0.402637     0.588972    Uiso  ? C
   C862       1.0     0.620428     0.445771     0.567972    Uiso  ? C
   H562       1.0     0.629071     0.427882     0.532916    Uiso  ? H
   C863       1.0     0.634452     0.421291     0.604517    Uiso  ? C
   H563       1.0     0.651414     0.386054     0.596813    Uiso  ? H
   C864       1.0     0.625040     0.444126     0.594826    Uiso  ? C
   H564       1.0     0.612874     0.462353     0.559781    Uiso  ? H
   H565       1.0     0.638680     0.418129     0.624588    Uiso  ? H
   C865       1.0     0.620770     0.465972     0.610633    Uiso  ? C
   H566       1.0     0.604402     0.476647     0.603725    Uiso  ? H
   H567       1.0     0.617414     0.459140     0.629831    Uiso  ? H
   N19        1.0     0.643195     0.482159     0.610747    Uiso  ? N
   C866       1.0     0.648953     0.500210     0.628330    Uiso  ? C
   C867       1.0     0.663832     0.481269     0.594658    Uiso  ? C
   C868       1.0     0.673132     0.508078     0.623178    Uiso  ? C
   H568       1.0     0.636580     0.506176     0.643379    Uiso  ? H
   H569       1.0     0.666231     0.468195     0.580320    Uiso  ? H
   H570       1.0     0.683865     0.522631     0.633388    Uiso  ? H
   N20        1.0     0.682779     0.495614     0.602722    Uiso  ? N
   C869       1.0     0.678040     0.729860     0.562605    Uiso  ? C
   C870       1.0     0.702527     0.721907     0.562747    Uiso  ? C
   C871       1.0     0.701794     0.761858     0.566236    Uiso  ? C
   N21        1.0     0.677456     0.754846     0.564615    Uiso  ? N
   H571       1.0     0.662652     0.718091     0.556339    Uiso  ? H
   H572       1.0     0.709257     0.702036     0.557819    Uiso  ? H
   H573       1.0     0.707478     0.781197     0.569955    Uiso  ? H
   N22        1.0     0.718298     0.742242     0.564927    Uiso  ? N
   C872       1.0     0.745655     0.741719     0.561253    Uiso  ? C
   H574       1.0     0.752920     0.757891     0.571754    Uiso  ? H
   H575       1.0     0.754518     0.723622     0.567536    Uiso  ? H
   C873       1.0     0.750321     0.744874     0.533020    Uiso  ? C
   C874       1.0     0.743080     0.727136     0.514466    Uiso  ? C
   C875       1.0     0.757752     0.768719     0.523444    Uiso  ? C
   C876       1.0     0.747168     0.731274     0.488601    Uiso  ? C
   H576       1.0     0.736161     0.708731     0.519090    Uiso  ? H
   C877       1.0     0.762461     0.772963     0.498481    Uiso  ? C
   H577       1.0     0.762545     0.783749     0.536144    Uiso  ? H
   C878       1.0     0.758612     0.753788     0.480673    Uiso  ? C
   H578       1.0     0.742761     0.714876     0.475866    Uiso  ? H
   H579       1.0     0.769549     0.790391     0.493292    Uiso  ? H
   C879       1.0     0.768348     0.756419     0.454879    Uiso  ? C
   C880       1.0     0.792244     0.766867     0.449446    Uiso  ? C
   C881       1.0     0.755381     0.743903     0.434668    Uiso  ? C
   C882       1.0     0.802573     0.766845     0.424256    Uiso  ? C
   H580       1.0     0.804073     0.773995     0.464516    Uiso  ? H
   C883       1.0     0.765641     0.742437     0.411048    Uiso  ? C
   H581       1.0     0.736367     0.736598     0.437360    Uiso  ? H
   C884       1.0     0.788859     0.754865     0.405039    Uiso  ? C
   H582       1.0     0.821387     0.775177     0.419543    Uiso  ? H
   H583       1.0     0.755687     0.733517     0.395562    Uiso  ? H
   C885       1.0     0.798400     0.753667     0.378204    Uiso  ? C
   H584       1.0     0.781962     0.752900     0.363449    Uiso  ? H
   H585       1.0     0.808706     0.772117     0.374716    Uiso  ? H
   N23        1.0     0.814079     0.730761     0.373566    Uiso  ? N
   C886       1.0     0.828369     0.725853     0.353482    Uiso  ? C
   C887       1.0     0.818272     0.711614     0.389766    Uiso  ? C
   C888       1.0     0.839265     0.702903     0.357566    Uiso  ? C
   H586       1.0     0.828828     0.735750     0.336460    Uiso  ? H
   H587       1.0     0.809668     0.712647     0.407449    Uiso  ? H
   H588       1.0     0.850068     0.693566     0.343960    Uiso  ? H
   N24        1.0     0.833424     0.692971     0.379921    Uiso  ? N
   C889       1.0     0.159215     0.295555     0.635844    Uiso  ? C
   C890       1.0     0.174663     0.276283     0.644468    Uiso  ? C
   C891       1.0     0.197484     0.305684     0.631917    Uiso  ? C
   N25        1.0     0.173252     0.313759     0.626469    Uiso  ? N
   H589       1.0     0.138697     0.293647     0.632146    Uiso  ? H
   H590       1.0     0.167912     0.257971     0.651527    Uiso  ? H
   H591       1.0     0.213592     0.315932     0.625851    Uiso  ? H
   N26        1.0     0.198748     0.282373     0.642297    Uiso  ? N
   C892       1.0     0.220273     0.266094     0.642543    Uiso  ? C
   H592       1.0     0.233236     0.273593     0.656162    Uiso  ? H
   H593       1.0     0.213596     0.247957     0.650000    Uiso  ? H
   C893       1.0     0.232240     0.261985     0.617115    Uiso  ? C
   C894       1.0     0.217477     0.255897     0.596305    Uiso  ? C
   C895       1.0     0.258053     0.268338     0.612861    Uiso  ? C
   C896       1.0     0.227287     0.256550     0.571008    Uiso  ? C
   H594       1.0     0.198081     0.250991     0.597920    Uiso  ? H
   C897       1.0     0.268639     0.268744     0.587918    Uiso  ? C
   H595       1.0     0.268891     0.273315     0.628579    Uiso  ? H
   C898       1.0     0.252354     0.264702     0.566650    Uiso  ? C
   H596       1.0     0.214113     0.252465     0.556475    Uiso  ? H
   H597       1.0     0.288334     0.273978     0.584019    Uiso  ? H
   C899       1.0     0.261786     0.267799     0.540258    Uiso  ? C
   C900       1.0     0.272544     0.291253     0.531962    Uiso  ? C
   C901       1.0     0.254009     0.251280     0.521121    Uiso  ? C
   C902       1.0     0.277161     0.296048     0.505784    Uiso  ? C
   H598       1.0     0.277166     0.305478     0.547495    Uiso  ? H
   C903       1.0     0.256627     0.256651     0.495704    Uiso  ? C
   H599       1.0     0.243327     0.234840     0.526164    Uiso  ? H
   C904       1.0     0.268309     0.278352     0.488216    Uiso  ? C
   H600       1.0     0.285484     0.313888     0.499106    Uiso  ? H
   H601       1.0     0.247938     0.243817     0.481752    Uiso  ? H
   C905       1.0     0.271297     0.283607     0.459932    Uiso  ? C
   H602       1.0     0.252893     0.279581     0.449652    Uiso  ? H
   H603       1.0     0.272597     0.304558     0.456040    Uiso  ? H
   N27        1.0     0.290920     0.269528     0.448144    Uiso  ? N
   C906       1.0     0.289925     0.260833     0.423899    Uiso  ? C
   C907       1.0     0.310970     0.259121     0.458502    Uiso  ? C
   C908       1.0     0.309302     0.244187     0.420793    Uiso  ? C
   H604       1.0     0.277189     0.267499     0.409724    Uiso  ? H
   H605       1.0     0.316766     0.262958     0.477798    Uiso  ? H
   H606       1.0     0.313209     0.230862     0.404552    Uiso  ? H
   N28        1.0     0.322510     0.243240     0.442585    Uiso  ? N
   C909       1.0     0.324775     0.503987     0.373857    Uiso  ? C
   C910       1.0     0.349933     0.512702     0.372597    Uiso  ? C
   C911       1.0     0.337842     0.510037     0.411888    Uiso  ? C
   N29        1.0     0.317340     0.503877     0.398068    Uiso  ? N
   H607       1.0     0.312449     0.499576     0.356563    Uiso  ? H
   H608       1.0     0.361673     0.518148     0.355911    Uiso  ? H
   H609       1.0     0.337906     0.510883     0.432545    Uiso  ? H
   N30        1.0     0.357977     0.515151     0.396476    Uiso  ? N
   C912       1.0     0.379889     0.530102     0.404446    Uiso  ? C
   H610       1.0     0.391423     0.518054     0.418137    Uiso  ? H
   H611       1.0     0.391743     0.535199     0.386239    Uiso  ? H
   C913       1.0     0.371334     0.553316     0.418154    Uiso  ? C
   C914       1.0     0.377471     0.556025     0.443291    Uiso  ? C
   C915       1.0     0.356477     0.571642     0.405589    Uiso  ? C
   C916       1.0     0.366012     0.574738     0.458332    Uiso  ? C
   H612       1.0     0.387271     0.539710     0.452143    Uiso  ? H
   C917       1.0     0.345169     0.590413     0.420948    Uiso  ? C
   H613       1.0     0.349346     0.569669     0.387377    Uiso  ? H
   C918       1.0     0.350594     0.592338     0.446992    Uiso  ? C
   H614       1.0     0.369781     0.573415     0.478484    Uiso  ? H
   H615       1.0     0.334058     0.604701     0.411771    Uiso  ? H
   C919       1.0     0.337806     0.613039     0.462595    Uiso  ? C
   C920       1.0     0.330359     0.607172     0.487783    Uiso  ? C
   C921       1.0     0.333323     0.637834     0.453668    Uiso  ? C
   C922       1.0     0.319964     0.626404     0.503863    Uiso  ? C
   H616       1.0     0.332889     0.587460     0.495330    Uiso  ? H
   C923       1.0     0.319203     0.655661     0.467518    Uiso  ? C
   H617       1.0     0.342694     0.645228     0.436227    Uiso  ? H
   C924       1.0     0.313209     0.650206     0.493258    Uiso  ? C
   H618       1.0     0.316556     0.621608     0.523503    Uiso  ? H
   H619       1.0     0.318846     0.675124     0.461097    Uiso  ? H
   C925       1.0     0.302154     0.670596     0.509736    Uiso  ? C
   H620       1.0     0.289470     0.682408     0.497618    Uiso  ? H
   H621       1.0     0.290099     0.661169     0.524723    Uiso  ? H
   N31        1.0     0.322048     0.684997     0.521425    Uiso  ? N
   C926       1.0     0.332201     0.680445     0.544297    Uiso  ? C
   C927       1.0     0.333504     0.705507     0.512832    Uiso  ? C
   C928       1.0     0.349761     0.698865     0.549781    Uiso  ? C
   H622       1.0     0.325520     0.666109     0.556685    Uiso  ? H
   H623       1.0     0.331619     0.714185     0.494151    Uiso  ? H
   H624       1.0     0.360916     0.699379     0.568376    Uiso  ? H
   N32        1.0     0.351074     0.713986     0.529929    Uiso  ? N
   C929       1.0     0.605271     0.688891     0.226593    Uiso  ? C
   C930       1.0     0.616698     0.698154     0.247456    Uiso  ? C
   C931       1.0     0.613942     0.657707     0.250465    Uiso  ? C
   N33        1.0     0.602662     0.663529     0.228537    Uiso  ? N
   H625       1.0     0.597279     0.699660     0.210829    Uiso  ? H
   H626       1.0     0.621059     0.718737     0.250801    Uiso  ? H
   H627       1.0     0.615245     0.638805     0.258208    Uiso  ? H
   N34        1.0     0.621836     0.678371     0.262651    Uiso  ? N
   C932       1.0     0.635063     0.681371     0.286728    Uiso  ? C
   H628       1.0     0.653817     0.690238     0.283749    Uiso  ? H
   H629       1.0     0.623919     0.695719     0.296804    Uiso  ? H
   C933       1.0     0.635699     0.656980     0.299732    Uiso  ? C
   C934       1.0     0.613987     0.647089     0.312309    Uiso  ? C
   C935       1.0     0.657795     0.641628     0.297866    Uiso  ? C
   C936       1.0     0.614306     0.622203     0.321597    Uiso  ? C
   H630       1.0     0.595956     0.655820     0.312277    Uiso  ? H
   C937       1.0     0.657631     0.615676     0.306353    Uiso  ? C
   H631       1.0     0.675998     0.648798     0.289514    Uiso  ? H
   C938       1.0     0.635854     0.606180     0.317997    Uiso  ? C
   H632       1.0     0.597747     0.614607     0.330039    Uiso  ? H
   H633       1.0     0.674947     0.604208     0.302858    Uiso  ? H
   C939       1.0     0.634741     0.580329     0.327270    Uiso  ? C
   C940       1.0     0.643397     0.562361     0.310671    Uiso  ? C
   C941       1.0     0.624261     0.572645     0.349390    Uiso  ? C
   C942       1.0     0.641478     0.536532     0.316699    Uiso  ? C
   H634       1.0     0.649587     0.567104     0.291653    Uiso  ? H
   C943       1.0     0.626073     0.547589     0.357944    Uiso  ? C
   H635       1.0     0.615205     0.585433     0.362162    Uiso  ? H
   C944       1.0     0.634923     0.528931     0.340682    Uiso  ? C
   H636       1.0     0.648913     0.522831     0.302292    Uiso  ? H
   H637       1.0     0.617304     0.541121     0.376156    Uiso  ? H
   C945       1.0     0.638132     0.501714     0.347012    Uiso  ? C
   H638       1.0     0.628034     0.498121     0.365341    Uiso  ? H
   H639       1.0     0.630695     0.492409     0.329647    Uiso  ? H
   N35        1.0     0.664646     0.496264     0.350773    Uiso  ? N
   C946       1.0     0.678092     0.480291     0.335331    Uiso  ? C
   C947       1.0     0.680994     0.503773     0.368488    Uiso  ? C
   C948       1.0     0.701548     0.476722     0.345393    Uiso  ? C
   H640       1.0     0.670648     0.470521     0.319697    Uiso  ? H
   H641       1.0     0.675146     0.514384     0.384328    Uiso  ? H
   H642       1.0     0.715582     0.462334     0.339107    Uiso  ? H
   N36        1.0     0.703265     0.491993     0.366078    Uiso  ? N
   C949       1.0     0.323988     0.470396     0.280128    Uiso  ? C
   C950       1.0     0.313156     0.465402     0.302250    Uiso  ? C
   C951       1.0     0.349257     0.448406     0.300423    Uiso  ? C
   N37        1.0     0.346958     0.460758     0.278940    Uiso  ? N
   H643       1.0     0.314429     0.481154     0.265191    Uiso  ? H
   H644       1.0     0.294645     0.471131     0.309699    Uiso  ? H
   H645       1.0     0.365907     0.437372     0.304220    Uiso  ? H
   N38        1.0     0.329823     0.451582     0.315694    Uiso  ? N
   C952       1.0     0.325011     0.436536     0.338576    Uiso  ? C
   H646       1.0     0.342759     0.430145     0.346527    Uiso  ? H
   H647       1.0     0.315836     0.450174     0.350909    Uiso  ? H
   C953       1.0     0.308772     0.414668     0.333052    Uiso  ? C
   C954       1.0     0.320009     0.390185     0.330527    Uiso  ? C
   C955       1.0     0.282694     0.417545     0.331018    Uiso  ? C
   C956       1.0     0.304585     0.369394     0.325128    Uiso  ? C
   H648       1.0     0.341606     0.387952     0.331785    Uiso  ? H
   C957       1.0     0.267294     0.396594     0.327691    Uiso  ? C
   H649       1.0     0.274327     0.435517     0.333487    Uiso  ? H
   C958       1.0     0.278039     0.371786     0.324728    Uiso  ? C
   H650       1.0     0.313770     0.352467     0.319115    Uiso  ? H
   H651       1.0     0.247894     0.400353     0.327155    Uiso  ? H
   C959       1.0     0.261293     0.349507     0.325015    Uiso  ? C
   C960       1.0     0.238406     0.348695     0.312676    Uiso  ? C
   C961       1.0     0.268354     0.327895     0.338236    Uiso  ? C
   C962       1.0     0.222808     0.327402     0.313333    Uiso  ? C
   H652       1.0     0.233657     0.363008     0.299615    Uiso  ? H
   C963       1.0     0.253612     0.306417     0.337828    Uiso  ? C
   H653       1.0     0.284853     0.327515     0.349925    Uiso  ? H
   C964       1.0     0.229548     0.306581     0.326471    Uiso  ? C
   H654       1.0     0.204443     0.329587     0.305667    Uiso  ? H
   H655       1.0     0.260005     0.289614     0.347724    Uiso  ? H
   C965       1.0     0.210796     0.285894     0.332221    Uiso  ? C
   H656       1.0     0.197301     0.286308     0.316888    Uiso  ? H
   H657       1.0     0.220026     0.266394     0.333902    Uiso  ? H
   N39        1.0     0.198056     0.290322     0.356845    Uiso  ? N
   C966       1.0     0.198395     0.274704     0.377340    Uiso  ? C
   C967       1.0     0.186881     0.311541     0.364708    Uiso  ? C
   C968       1.0     0.187773     0.288813     0.397883    Uiso  ? C
   H658       1.0     0.207309     0.256507     0.375897    Uiso  ? H
   H659       1.0     0.184221     0.328087     0.352934    Uiso  ? H
   H660       1.0     0.188273     0.282657     0.418355    Uiso  ? H
   N40        1.0     0.181339     0.311422     0.389460    Uiso  ? N
   C969       1.0     0.306167     0.526413     0.646986    Uiso  ? C
   C970       1.0     0.331419     0.522903     0.654640    Uiso  ? C
   C971       1.0     0.320315     0.490901     0.631785    Uiso  ? C
   N41        1.0     0.301180     0.507534     0.630944    Uiso  ? N
   H661       1.0     0.295375     0.544547     0.650728    Uiso  ? H
   H662       1.0     0.341215     0.537777     0.664236    Uiso  ? H
   H663       1.0     0.320867     0.472170     0.621201    Uiso  ? H
   N42        1.0     0.339700     0.499876     0.646375    Uiso  ? N
   C972       1.0     0.364411     0.487866     0.650983    Uiso  ? C
   H664       1.0     0.373491     0.490446     0.632593    Uiso  ? H
   H665       1.0     0.376700     0.498242     0.663949    Uiso  ? H
   C973       1.0     0.363368     0.460371     0.657181    Uiso  ? C
   C974       1.0     0.356981     0.454086     0.681203    Uiso  ? C
   C975       1.0     0.370918     0.441396     0.640168    Uiso  ? C
   C976       1.0     0.358409     0.428787     0.688907    Uiso  ? C
   H666       1.0     0.349960     0.468756     0.694067    Uiso  ? H
   C977       1.0     0.370814     0.416206     0.647979    Uiso  ? C
   H667       1.0     0.378610     0.445412     0.621837    Uiso  ? H
   C978       1.0     0.362799     0.409156     0.671520    Uiso  ? C
   H668       1.0     0.352761     0.424956     0.708448    Uiso  ? H
   H669       1.0     0.377158     0.402681     0.635113    Uiso  ? H
   C979       1.0     0.362633     0.382752     0.680546    Uiso  ? C
   C980       1.0     0.383446     0.367725     0.678169    Uiso  ? C
   C981       1.0     0.342472     0.373552     0.693909    Uiso  ? C
   C982       1.0     0.383862     0.342814     0.685786    Uiso  ? C
   H670       1.0     0.401388     0.375050     0.669741    Uiso  ? H
   C983       1.0     0.343267     0.349701     0.704580    Uiso  ? C
   H671       1.0     0.326039     0.385451     0.695110    Uiso  ? H
   C984       1.0     0.364586     0.334212     0.701571    Uiso  ? C
   H672       1.0     0.398819     0.331289     0.681218    Uiso  ? H
   H673       1.0     0.327322     0.342274     0.714697    Uiso  ? H
   C985       1.0     0.366471     0.307722     0.715476    Uiso  ? C
   H674       1.0     0.350808     0.294310     0.712667    Uiso  ? H
   H675       1.0     0.383926     0.298728     0.707886    Uiso  ? H
   N43        1.0     0.371519     0.311555     0.741939    Uiso  ? N
   C986       1.0     0.354019     0.310523     0.760610    Uiso  ? C
   C987       1.0     0.391739     0.324117     0.751365    Uiso  ? C
   C988       1.0     0.364001     0.322830     0.781083    Uiso  ? C
   H676       1.0     0.335441     0.303120     0.758281    Uiso  ? H
   H677       1.0     0.409161     0.329449     0.739982    Uiso  ? H
   H678       1.0     0.353365     0.327018     0.798906    Uiso  ? H
   N44        1.0     0.387107     0.331741     0.775777    Uiso  ? N
   C989       1.0     0.636052     0.544009     0.691784    Uiso  ? C
   C990       1.0     0.656392     0.550479     0.676564    Uiso  ? C
   C991       1.0     0.668876     0.543752     0.715137    Uiso  ? C
   N45        1.0     0.643440     0.541159     0.716582    Uiso  ? N
   H679       1.0     0.616764     0.543680     0.685588    Uiso  ? H
   H680       1.0     0.656883     0.554130     0.656903    Uiso  ? H
   H681       1.0     0.682246     0.540650     0.730805    Uiso  ? H
   N46        1.0     0.676659     0.548639     0.690968    Uiso  ? N
   C992       1.0     0.702438     0.549774     0.682074    Uiso  ? C
   H682       1.0     0.714526     0.536702     0.693372    Uiso  ? H
   H683       1.0     0.704622     0.541449     0.663078    Uiso  ? H
   C993       1.0     0.710980     0.576889     0.683776    Uiso  ? C
   C994       1.0     0.707157     0.592681     0.662917    Uiso  ? C
   C995       1.0     0.723008     0.586225     0.705207    Uiso  ? C
   C996       1.0     0.715769     0.617783     0.663643    Uiso  ? C
   H684       1.0     0.696966     0.585603     0.647779    Uiso  ? H
   C997       1.0     0.728850     0.611963     0.706667    Uiso  ? C
   H685       1.0     0.725526     0.576358     0.722108    Uiso  ? H
   C998       1.0     0.727420     0.627896     0.684551    Uiso  ? C
   H686       1.0     0.714416     0.629272     0.646785    Uiso  ? H
   H687       1.0     0.736926     0.618952     0.724843    Uiso  ? H
   C999       1.0     0.740022     0.653067     0.683606    Uiso  ? C
   C1000      1.0     0.763808     0.656940     0.697332    Uiso  ? C
   C1001      1.0     0.730745     0.673782     0.669112    Uiso  ? C
   C1002      1.0     0.777371     0.679455     0.693642    Uiso  ? C
   H688       1.0     0.772755     0.640694     0.706287    Uiso  ? H
   C1003      1.0     0.744385     0.695551     0.665679    Uiso  ? C
   H689       1.0     0.714375     0.672320     0.655855    Uiso  ? H
   C1004      1.0     0.767957     0.697884     0.677195    Uiso  ? C
   H690       1.0     0.795504     0.681252     0.703828    Uiso  ? H
   H691       1.0     0.735524     0.710936     0.653646    Uiso  ? H
   C1005      1.0     0.784756     0.719192     0.668690    Uiso  ? C
   H692       1.0     0.772859     0.736458     0.666119    Uiso  ? H
   H693       1.0     0.799208     0.725001     0.682235    Uiso  ? H
   N47        1.0     0.798502     0.713166     0.645665    Uiso  ? N
   C1006      1.0     0.804216     0.728683     0.626407    Uiso  ? C
   C1007      1.0     0.806334     0.689879     0.637406    Uiso  ? C
   C1008      1.0     0.816334     0.714419     0.607870    Uiso  ? C
   H694       1.0     0.801617     0.747643     0.625649    Uiso  ? H
   H695       1.0     0.802709     0.672358     0.647038    Uiso  ? H
   H696       1.0     0.824602     0.723881     0.591337    Uiso  ? H
   N48        1.0     0.816763     0.690039     0.614666    Uiso  ? N
   C1009      1.0     0.520768     0.739252     0.821279    Uiso  ? C
   C1010      1.0     0.529539     0.756279     0.804048    Uiso  ? C
   C1011      1.0     0.526586     0.720399     0.786138    Uiso  ? C
   N49        1.0     0.521669     0.716272     0.810827    Uiso  ? N
   H697       1.0     0.515324     0.743780     0.840545    Uiso  ? H
   H698       1.0     0.534405     0.775976     0.806575    Uiso  ? H
   H699       1.0     0.527846     0.706619     0.770948    Uiso  ? H
   N50        1.0     0.533352     0.744110     0.782649    Uiso  ? N
   C1012      1.0     0.543173     0.753926     0.758917    Uiso  ? C
   H700       1.0     0.529941     0.746727     0.744211    Uiso  ? H
   H701       1.0     0.542964     0.775228     0.757546    Uiso  ? H
   C1013      1.0     0.569708     0.744783     0.756208    Uiso  ? C
   C1014      1.0     0.587391     0.759238     0.769758    Uiso  ? C
   C1015      1.0     0.577119     0.724208     0.742817    Uiso  ? C
   C1016      1.0     0.612461     0.752856     0.768630    Uiso  ? C
   H702       1.0     0.582172     0.775196     0.781415    Uiso  ? H
   C1017      1.0     0.602094     0.717328     0.742181    Uiso  ? C
   H703       1.0     0.563339     0.712974     0.734443    Uiso  ? H
   C1018      1.0     0.620912     0.731909     0.756154    Uiso  ? C
   H704       1.0     0.626213     0.764066     0.781196    Uiso  ? H
   H705       1.0     0.607083     0.702006     0.729770    Uiso  ? H
   C1019      1.0     0.647985     0.724869     0.755258    Uiso  ? C
   C1020      1.0     0.661871     0.721174     0.777565    Uiso  ? C
   C1021      1.0     0.660530     0.718305     0.731313    Uiso  ? C
   C1022      1.0     0.686302     0.712405     0.777069    Uiso  ? C
   H706       1.0     0.653970     0.727289     0.795632    Uiso  ? H
   C1023      1.0     0.685820     0.708880     0.732156    Uiso  ? C
   H707       1.0     0.650743     0.719963     0.713133    Uiso  ? H
   C1024      1.0     0.698156     0.706192     0.754852    Uiso  ? C
   H708       1.0     0.697071     0.708616     0.794264    Uiso  ? H
   H709       1.0     0.696892     0.703410     0.716543    Uiso  ? H
   C1025      1.0     0.725325     0.697030     0.753947    Uiso  ? C
   H710       1.0     0.730114     0.685375     0.770091    Uiso  ? H
   H711       1.0     0.728752     0.683575     0.737418    Uiso  ? H
   N51        1.0     0.743467     0.717779     0.751076    Uiso  ? N
   C1026      1.0     0.749733     0.730738     0.730637    Uiso  ? C
   C1027      1.0     0.756141     0.728571     0.770038    Uiso  ? C
   C1028      1.0     0.766795     0.748859     0.736897    Uiso  ? C
   H712       1.0     0.742425     0.726662     0.710528    Uiso  ? H
   H713       1.0     0.754550     0.723208     0.788956    Uiso  ? H
   H714       1.0     0.774496     0.763628     0.724059    Uiso  ? H
   N52        1.0     0.770142     0.748260     0.761860    Uiso  ? N
   C1029      1.0     0.741711     0.486632     0.158755    Uiso  ? C
   C1030      1.0     0.766553     0.477758     0.155198    Uiso  ? C
   C1031      1.0     0.747591     0.478128     0.119473    Uiso  ? C
   N53        1.0     0.730375     0.487758     0.135689    Uiso  ? N
   H715       1.0     0.733240     0.492350     0.177339    Uiso  ? H
   H716       1.0     0.782268     0.477452     0.168763    Uiso  ? H
   H717       1.0     0.744578     0.477977     0.898009    Uiso  ? H
   N54        1.0     0.769020     0.470936     0.130875    Uiso  ? N
   C1032      1.0     0.791435     0.459242     0.119811    Uiso  ? C
   H718       1.0     0.803782     0.473060     0.109961    Uiso  ? H
   H719       1.0     0.803417     0.450108     0.133987    Uiso  ? H
   C1033      1.0     0.781871     0.438396     0.103564    Uiso  ? C
   C1034      1.0     0.784427     0.438421     0.877668    Uiso  ? C
   C1035      1.0     0.769154     0.418288     0.114270    Uiso  ? C
   C1036      1.0     0.773578     0.419986     0.862849    Uiso  ? C
   H720       1.0     0.796299     0.453019     0.869755    Uiso  ? H
   C1037      1.0     0.759127     0.398041     0.900000    Uiso  ? C
   H721       1.0     0.765680     0.418178     0.134265    Uiso  ? H
   C1038      1.0     0.760487     0.399192     0.873053    Uiso  ? C
   H722       1.0     0.776784     0.421127     0.842865    Uiso  ? H
   H723       1.0     0.746588     0.384338     0.108957    Uiso  ? H
   C1039      1.0     0.751435     0.378860     0.855315    Uiso  ? C
   C1040      1.0     0.750736     0.353672     0.862486    Uiso  ? C
   C1041      1.0     0.743152     0.385753     0.830178    Uiso  ? C
   C1042      1.0     0.740895     0.334797     0.845891    Uiso  ? C
   H724       1.0     0.757845     0.348655     0.881499    Uiso  ? H
   C1043      1.0     0.731567     0.367783     0.814775    Uiso  ? C
   H725       1.0     0.741607     0.404946     0.823635    Uiso  ? H
   C1044      1.0     0.731387     0.342287     0.821844    Uiso  ? C
   H726       1.0     0.740981     0.315735     0.853944    Uiso  ? H
   H727       1.0     0.723801     0.375596     0.797682    Uiso  ? H
   C1045      1.0     0.718542     0.323420     0.805861    Uiso  ? C
   H728       1.0     0.703303     0.313965     0.816553    Uiso  ? H
   H729       1.0     0.709832     0.333156     0.788454    Uiso  ? H
   N55        1.0     0.737455     0.305442     0.796552    Uiso  ? N
   C1046      1.0     0.752635     0.308149     0.775633    Uiso  ? C
   C1047      1.0     0.747961     0.286368     0.810251    Uiso  ? C
   C1048      1.0     0.770112     0.288703     0.776959    Uiso  ? C
   H730       1.0     0.749609     0.320807     0.760158    Uiso  ? H
   H731       1.0     0.739470     0.281034     0.827464    Uiso  ? H
   H732       1.0     0.787580     0.287681     0.765746    Uiso  ? H
   N56        1.0     0.768146     0.276769     0.799225    Uiso  ? N
   C1049      1.0     0.225989     0.713399     0.201877    Uiso  ? C
   C1050      1.0     0.246306     0.697686     0.201961    Uiso  ? C
   C1051      1.0     0.250658     0.722602     0.171030    Uiso  ? C
   N57        1.0     0.227431     0.727000     0.180926    Uiso  ? N
   H733       1.0     0.210114     0.713455     0.214991    Uiso  ? H
   H734       1.0     0.251733     0.685239     0.217044    Uiso  ? H
   H735       1.0     0.257324     0.731501     0.152318    Uiso  ? H
   N58        1.0     0.261856     0.703211     0.182014    Uiso  ? N
   C1052      1.0     0.283483     0.688740     0.172677    Uiso  ? C
   H736       1.0     0.293886     0.701152     0.159462    Uiso  ? H
   H737       1.0     0.295420     0.681801     0.188641    Uiso  ? H
   C1053      1.0     0.272434     0.666427     0.158441    Uiso  ? C
   C1054      1.0     0.275931     0.641679     0.166776    Uiso  ? C
   C1055      1.0     0.256164     0.670235     0.138433    Uiso  ? C
   C1056      1.0     0.262032     0.621680     0.156811    Uiso  ? C
   H738       1.0     0.289526     0.637364     0.180165    Uiso  ? H
   C1057      1.0     0.242616     0.650491     0.126732    Uiso  ? C
   H739       1.0     0.256544     0.689646     0.130460    Uiso  ? H
   C1058      1.0     0.246848     0.625042     0.135285    Uiso  ? C
   H740       1.0     0.265897     0.602839     0.162862    Uiso  ? H
   H741       1.0     0.232960     0.654936     0.108736    Uiso  ? H
   C1059      1.0     0.233666     0.602975     0.121997    Uiso  ? C
   C1060      1.0     0.223195     0.583771     0.137301    Uiso  ? C
   C1061      1.0     0.231133     0.599731     0.896970    Uiso  ? C
   C1062      1.0     0.210235     0.561645     0.126390    Uiso  ? C
   H742       1.0     0.225183     0.585314     0.157701    Uiso  ? H
   C1063      1.0     0.219839     0.578676     0.885759    Uiso  ? C
   H743       1.0     0.235780     0.615469     0.883630    Uiso  ? H
   C1064      1.0     0.210770     0.560209     0.100000    Uiso  ? C
   H744       1.0     0.202630     0.545271     0.137712    Uiso  ? H
   H745       1.0     0.219637     0.577762     0.866451    Uiso  ? H
   C1065      1.0     0.200952     0.535459     0.886514    Uiso  ? C
   H746       1.0     0.192340     0.522599     0.899960    Uiso  ? H
   H747       1.0     0.186594     0.538673     0.871916    Uiso  ? H
   N59        1.0     0.222368     0.522962     0.873871    Uiso  ? N
   C1066      1.0     0.224478     0.513796     0.850383    Uiso  ? C
   C1067      1.0     0.245450     0.518643     0.882931    Uiso  ? C
   C1068      1.0     0.248975     0.504931     0.846456    Uiso  ? C
   H748       1.0     0.208890     0.514078     0.837034    Uiso  ? H
   H749       1.0     0.252128     0.526196     0.899703    Uiso  ? H
   H750       1.0     0.257970     0.499292     0.829358    Uiso  ? H
   N60        1.0     0.263082     0.510696     0.866223    Uiso  ? N
   C1069      1.0     0.218089     0.263442     0.247061    Uiso  ? C
   C1070      1.0     0.234620     0.281716     0.255737    Uiso  ? C
   C1071      1.0     0.240833     0.275065     0.215913    Uiso  ? C
   N61        1.0     0.221937     0.259019     0.222241    Uiso  ? N
   H751       1.0     0.208728     0.249588     0.259018    Uiso  ? H
   H752       1.0     0.233560     0.290944     0.274270    Uiso  ? H
   H753       1.0     0.249372     0.278127     0.197200    Uiso  ? H
   N62        1.0     0.247643     0.290096     0.235749    Uiso  ? N
   C1072      1.0     0.264419     0.311882     0.234913    Uiso  ? C
   H754       1.0     0.260214     0.322862     0.216300    Uiso  ? H
   H755       1.0     0.261244     0.325566     0.250072    Uiso  ? H
   C1073      1.0     0.291852     0.302044     0.235171    Uiso  ? C
   C1074      1.0     0.302651     0.294742     0.257679    Uiso  ? C
   C1075      1.0     0.305893     0.300540     0.212148    Uiso  ? C
   C1076      1.0     0.327278     0.284750     0.257624    Uiso  ? C
   H756       1.0     0.291525     0.296120     0.275883    Uiso  ? H
   C1077      1.0     0.330814     0.291059     0.211904    Uiso  ? C
   H757       1.0     0.297256     0.304866     0.194571    Uiso  ? H
   C1078      1.0     0.341567     0.283524     0.234913    Uiso  ? C
   H758       1.0     0.336523     0.276855     0.274703    Uiso  ? H
   H759       1.0     0.342385     0.289789     0.194813    Uiso  ? H
   C1079      1.0     0.367327     0.274007     0.236293    Uiso  ? C
   C1080      1.0     0.385889     0.285908     0.249936    Uiso  ? C
   C1081      1.0     0.373752     0.253706     0.221710    Uiso  ? C
   C1082      1.0     0.410217     0.275737     0.251887    Uiso  ? C
   H760       1.0     0.383741     0.304956     0.260012    Uiso  ? H
   C1083      1.0     0.399204     0.242640     0.221669    Uiso  ? C
   H761       1.0     0.360506     0.244408     0.210255    Uiso  ? H
   C1084      1.0     0.417171     0.253794     0.236956    Uiso  ? C
   H762       1.0     0.424396     0.282764     0.263677    Uiso  ? H
   H763       1.0     0.402151     0.227446     0.209073    Uiso  ? H
   C1085      1.0     0.443774     0.244731     0.235270    Uiso  ? C
   H764       1.0     0.455431     0.246510     0.253648    Uiso  ? H
   H765       1.0     0.443146     0.225329     0.232523    Uiso  ? H
   N63        1.0     0.457135     0.256885     0.213710    Uiso  ? N
   C1086      1.0     0.477213     0.247362     0.200980    Uiso  ? C
   C1087      1.0     0.455125     0.281159     0.206220    Uiso  ? C
   C1088      1.0     0.485848     0.265912     0.185534    Uiso  ? C
   H766       1.0     0.487047     0.228793     0.204205    Uiso  ? H
   H767       1.0     0.443830     0.295171     0.214672    Uiso  ? H
   H768       1.0     0.503321     0.265219     0.173491    Uiso  ? H
   N64        1.0     0.472982     0.286673     0.188388    Uiso  ? N
   C1089      1.0     0.642772     0.155178     0.703068    Uiso  ? C
   C1090      1.0     0.661911     0.169854     0.714132    Uiso  ? C
   C1091      1.0     0.656762     0.180824     0.676267    Uiso  ? C
   N65        1.0     0.640205     0.162156     0.679108    Uiso  ? N
   H769       1.0     0.631525     0.140651     0.712189    Uiso  ? H
   H770       1.0     0.666927     0.170789     0.734730    Uiso  ? H
   H771       1.0     0.659155     0.192026     0.658803    Uiso  ? H
   N66        1.0     0.672085     0.184781     0.695998    Uiso  ? N
   C1092      1.0     0.690090     0.205200     0.698204    Uiso  ? C
   H772       1.0     0.680172     0.223906     0.692399    Uiso  ? H
   H773       1.0     0.695813     0.205753     0.719231    Uiso  ? H
   C1093      1.0     0.712848     0.198441     0.681862    Uiso  ? C
   C1094      1.0     0.719118     0.212147     0.659625    Uiso  ? C
   C1095      1.0     0.726729     0.176437     0.687728    Uiso  ? C
   C1096      1.0     0.738439     0.203630     0.643942    Uiso  ? C
   H774       1.0     0.710315     0.230452     0.656572    Uiso  ? H
   C1097      1.0     0.747818     0.168878     0.672746    Uiso  ? C
   H775       1.0     0.721678     0.165022     0.703626    Uiso  ? H
   C1098      1.0     0.754433     0.183211     0.651158    Uiso  ? C
   H776       1.0     0.745018     0.214148     0.626163    Uiso  ? H
   H777       1.0     0.759108     0.153764     0.679365    Uiso  ? H
   C1099      1.0     0.777362     0.177140     0.637327    Uiso  ? C
   C1100      1.0     0.796082     0.194440     0.634172    Uiso  ? C
   C1101      1.0     0.781694     0.152617     0.627604    Uiso  ? C
   C1102      1.0     0.818933     0.188912     0.623093    Uiso  ? C
   H778       1.0     0.792601     0.213218     0.640979    Uiso  ? H
   C1103      1.0     0.804989     0.146829     0.617239    Uiso  ? C
   H779       1.0     0.767796     0.138854     0.629206    Uiso  ? H
   C1104      1.0     0.822719     0.165700     0.612934    Uiso  ? C
   H780       1.0     0.831592     0.203771     0.621535    Uiso  ? H
   H781       1.0     0.809288     0.127776     0.611096    Uiso  ? H
   C1105      1.0     0.847531     0.158710     0.600763    Uiso  ? C
   H782       1.0     0.845234     0.148786     0.583194    Uiso  ? H
   H783       1.0     0.857798     0.174495     0.593889    Uiso  ? H
   N67        1.0     0.864309     0.144519     0.618709    Uiso  ? N
   C1106      1.0     0.886273     0.133651     0.613839    Uiso  ? C
   C1107      1.0     0.862279     0.143294     0.643007    Uiso  ? C
   C1108      1.0     0.897473     0.125264     0.636519    Uiso  ? C
   H784       1.0     0.895410     0.134508     0.595091    Uiso  ? H
   H785       1.0     0.846451     0.151670     0.653701    Uiso  ? H
   H786       1.0     0.120825     0.118446     0.638608    Uiso  ? H
   N68        1.0     0.881758     0.132586     0.655193    Uiso  ? N
   C1109      1.0     0.295741     0.141658     0.652915    Uiso  ? C
   C1110      1.0     0.277952     0.133249     0.670957    Uiso  ? C
   C1111      1.0     0.299058     0.896319     0.658231    Uiso  ? C
   N69        1.0     0.308513     0.121110     0.643451    Uiso  ? N
   H787       1.0     0.300235     0.161325     0.648059    Uiso  ? H
   H788       1.0     0.266813     0.144052     0.682684    Uiso  ? H
   H789       1.0     0.306671     0.877843     0.657932    Uiso  ? H
   N70        1.0     0.280892     0.108924     0.673687    Uiso  ? N
   C1112      1.0     0.272365     0.888093     0.695307    Uiso  ? C
   H790       1.0     0.252963     0.892830     0.703977    Uiso  ? H
   H791       1.0     0.271838     0.867780     0.690782    Uiso  ? H
   C1113      1.0     0.291967     0.889600     0.715379    Uiso  ? C
   C1114      1.0     0.309807     0.869460     0.719010    Uiso  ? C
   C1115      1.0     0.292507     0.116141     0.730368    Uiso  ? C
   C1116      1.0     0.327378     0.872097     0.738185    Uiso  ? C
   H792       1.0     0.311146     0.851767     0.707190    Uiso  ? H
   C1117      1.0     0.308989     0.116798     0.750439    Uiso  ? C
   H793       1.0     0.279511     0.132265     0.727805    Uiso  ? H
   C1118      1.0     0.327101     0.893580     0.754820    Uiso  ? C
   H794       1.0     0.340955     0.857453     0.740711    Uiso  ? H
   H795       1.0     0.307532     0.133212     0.762248    Uiso  ? H
   C1119      1.0     0.345868     0.895968     0.776287    Uiso  ? C
   C1120      1.0     0.356771     0.124909     0.783803    Uiso  ? C
   C1121      1.0     0.357383     0.873394     0.785526    Uiso  ? C
   C1122      1.0     0.372947     0.125064     0.805844    Uiso  ? C
   H796       1.0     0.348409     0.142709     0.776555    Uiso  ? H
   C1123      1.0     0.373468     0.874039     0.806397    Uiso  ? C
   H797       1.0     0.349032     0.855609     0.780070    Uiso  ? H
   C1124      1.0     0.381967     0.102740     0.816252    Uiso  ? C
   H798       1.0     0.376921     0.142323     0.815299    Uiso  ? H
   H799       1.0     0.378741     0.855878     0.815176    Uiso  ? H
   C1125      1.0     0.392234     0.103875     0.843237    Uiso  ? C
   H800       1.0     0.398422     0.880151     0.847406    Uiso  ? H
   H801       1.0     0.407204     0.119688     0.844741    Uiso  ? H
   N71        1.0     0.372567     0.109224     0.861946    Uiso  ? N
   C1126      1.0     0.372507     0.129191     0.878097    Uiso  ? C
   C1127      1.0     0.346809     0.896818     0.860214    Uiso  ? C
   C1128      1.0     0.348259     0.132915     0.886703    Uiso  ? C
   H802       1.0     0.387916     0.140176     0.882364    Uiso  ? H
   H803       1.0     0.339729     0.881765     0.847557    Uiso  ? H
   H804       1.0     0.342030     0.147028     0.898867    Uiso  ? H
   N72        1.0     0.333599     0.115085     0.875745    Uiso  ? N
   C1129      1.0     0.890380     0.869645     0.344203    Uiso  ? C
   C1130      1.0     0.107098     0.862300     0.366380    Uiso  ? C
   C1131      1.0     0.134837     0.868190     0.337699    Uiso  ? C
   N73        1.0     0.112352     0.872121     0.326093    Uiso  ? N
   H805       1.0     0.870281     0.873404     0.341338    Uiso  ? H
   H806       1.0     0.892716     0.857999     0.384222    Uiso  ? H
   H807       1.0     0.151946     0.867295     0.327780    Uiso  ? H
   N74        1.0     0.132099     0.862878     0.362787    Uiso  ? N
   C1132      1.0     0.151891     0.854967     0.380499    Uiso  ? C
   H808       1.0     0.155818     0.872488     0.391387    Uiso  ? H
   H809       1.0     0.143494     0.839983     0.391820    Uiso  ? H
   C1133      1.0     0.174735     0.846863     0.366811    Uiso  ? C
   C1134      1.0     0.175230     0.821843     0.357118    Uiso  ? C
   C1135      1.0     0.194524     0.863194     0.361497    Uiso  ? C
   C1136      1.0     0.196598     0.813855     0.343028    Uiso  ? C
   H810       1.0     0.159352     0.811962     0.357774    Uiso  ? H
   C1137      1.0     0.215420     0.855131     0.348542    Uiso  ? C
   H811       1.0     0.194178     0.881823     0.368481    Uiso  ? H
   C1138      1.0     0.216489     0.830361     0.339231    Uiso  ? C
   H812       1.0     0.197577     0.794619     0.335973    Uiso  ? H
   H813       1.0     0.230362     0.868579     0.345295    Uiso  ? H
   C1139      1.0     0.238651     0.820572     0.324546    Uiso  ? C
   C1140      1.0     0.252203     0.837363     0.309179    Uiso  ? C
   C1141      1.0     0.250454     0.798669     0.332964    Uiso  ? C
   C1142      1.0     0.274082     0.829794     0.298024    Uiso  ? C
   H814       1.0     0.243344     0.855339     0.302005    Uiso  ? H
   C1143      1.0     0.274369     0.790899     0.322542    Uiso  ? C
   H815       1.0     0.244303     0.787764     0.349160    Uiso  ? H
   C1144      1.0     0.285510     0.806096     0.303982    Uiso  ? C
   H816       1.0     0.283965     0.843057     0.285668    Uiso  ? H
   H817       1.0     0.283804     0.773813     0.327992    Uiso  ? H
   C1145      1.0     0.309963     0.799031     0.293192    Uiso  ? C
   H818       1.0     0.316341     0.779068     0.298289    Uiso  ? H
   H819       1.0     0.308345     0.798637     0.273456    Uiso  ? H
   N75        1.0     0.328485     0.817089     0.301111    Uiso  ? N
   C1146      1.0     0.339313     0.835731     0.287217    Uiso  ? C
   C1147      1.0     0.341079     0.817489     0.323077    Uiso  ? C
   C1148      1.0     0.358589     0.846238     0.300677    Uiso  ? C
   H820       1.0     0.335193     0.839417     0.267045    Uiso  ? H
   H821       1.0     0.336107     0.806625     0.338997    Uiso  ? H
   H822       1.0     0.369945     0.861488     0.294025    Uiso  ? H
   N76        1.0     0.359788     0.835437     0.323571    Uiso  ? N
   C1149      1.0     0.644069     0.112783     0.101920    Uiso  ? C
   C1150      1.0     0.621528     0.110441     0.115297    Uiso  ? C
   C1151      1.0     0.649825     0.888057     0.136938    Uiso  ? C
   N77        1.0     0.661080     0.896185     0.114863    Uiso  ? N
   H823       1.0     0.645477     0.118117     0.882459    Uiso  ? H
   H824       1.0     0.603964     0.115314     0.108216    Uiso  ? H
   H825       1.0     0.658921     0.877664     0.151598    Uiso  ? H
   N78        1.0     0.624758     0.893735     0.137715    Uiso  ? N
   C1152      1.0     0.604869     0.886328     0.155414    Uiso  ? C
   H826       1.0     0.591341     0.106365     0.156484    Uiso  ? H
   H827       1.0     0.595745     0.869365     0.145498    Uiso  ? H
   C1153      1.0     0.616394     0.880369     0.179304    Uiso  ? C
   C1154      1.0     0.622027     0.104123     0.196817    Uiso  ? C
   C1155      1.0     0.623253     0.854882     0.185014    Uiso  ? C
   C1156      1.0     0.635680     0.893822     0.217390    Uiso  ? C
   H828       1.0     0.613050     0.122186     0.195232    Uiso  ? H
   C1157      1.0     0.637730     0.848854     0.205788    Uiso  ? C
   H829       1.0     0.619716     0.840539     0.171887    Uiso  ? H
   C1158      1.0     0.645839     0.869567     0.220911    Uiso  ? C
   H830       1.0     0.641789     0.114099     0.230111    Uiso  ? H
   H831       1.0     0.645781     0.829924     0.209611    Uiso  ? H
   C1159      1.0     0.663434     0.864068     0.241790    Uiso  ? C
   C1160      1.0     0.682105     0.881474     0.247754    Uiso  ? C
   C1161      1.0     0.659811     0.842966     0.258397    Uiso  ? C
   C1162      1.0     0.699880     0.876464     0.267164    Uiso  ? C
   H832       1.0     0.687623     0.896737     0.234820    Uiso  ? H
   C1163      1.0     0.676207     0.837057     0.277799    Uiso  ? C
   H833       1.0     0.642235     0.831398     0.256272    Uiso  ? H
   C1164      1.0     0.695895     0.854349     0.283596    Uiso  ? C
   H834       1.0     0.714411     0.890029     0.271427    Uiso  ? H
   H835       1.0     0.671838     0.820392     0.288999    Uiso  ? H
   C1165      1.0     0.714890     0.849353     0.304712    Uiso  ? C
   H836       1.0     0.712270     0.828636     0.309672    Uiso  ? H
   H837       1.0     0.733688     0.855175     0.300265    Uiso  ? H
   N79        1.0     0.708147     0.865445     0.327106    Uiso  ? N
   C1166      1.0     0.720973     0.884154     0.338999    Uiso  ? C
   C1167      1.0     0.687137     0.861990     0.341145    Uiso  ? C
   C1168      1.0     0.706522     0.891778     0.359729    Uiso  ? C
   H838       1.0     0.740966     0.890754     0.334904    Uiso  ? H
   H839       1.0     0.672645     0.847925     0.337131    Uiso  ? H
   H840       1.0     0.713474     0.110619     0.374036    Uiso  ? H
   N80        1.0     0.685635     0.876938     0.361044    Uiso  ? N
   C1169      1.0     0.104665     0.515761     0.752542    Uiso  ? C
   C1170      1.0     0.102912     0.508277     0.778147    Uiso  ? C
   C1171      1.0     0.878188     0.481949     0.752846    Uiso  ? C
   N81        1.0     0.885703     0.500775     0.737460    Uiso  ? N
   H841       1.0     0.115209     0.532924     0.746416    Uiso  ? H
   H842       1.0     0.111236     0.517446     0.793932    Uiso  ? H
   H843       1.0     0.867477     0.467243     0.746248    Uiso  ? H
   N82        1.0     0.884150     0.487342     0.777399    Uiso  ? N
   C1172      1.0     0.880066     0.470135     0.798432    Uiso  ? C
   H844       1.0     0.881435     0.480247     0.816978    Uiso  ? H
   H845       1.0     0.861599     0.460917     0.795354    Uiso  ? H
   C1173      1.0     0.104711     0.449847     0.798934    Uiso  ? C
   C1174      1.0     0.895680     0.425328     0.789272    Uiso  ? C
   C1175      1.0     0.129375     0.456463     0.808139    Uiso  ? C
   C1176      1.0     0.120572     0.408087     0.787883    Uiso  ? C
   H846       1.0     0.877113     0.420991     0.785038    Uiso  ? H
   C1177      1.0     0.148552     0.438634     0.807525    Uiso  ? C
   H847       1.0     0.133308     0.477140     0.811203    Uiso  ? H
   C1178      1.0     0.144800     0.414175     0.796512    Uiso  ? C
   H848       1.0     0.116619     0.390820     0.779235    Uiso  ? H
   H849       1.0     0.166655     0.444390     0.813005    Uiso  ? H
   C1179      1.0     0.167377     0.397046     0.792865    Uiso  ? C
   C1180      1.0     0.187663     0.397335     0.809265    Uiso  ? C
   C1181      1.0     0.169115     0.382997     0.770385    Uiso  ? C
   C1182      1.0     0.209341     0.383930     0.804476    Uiso  ? C
   H850       1.0     0.188022     0.407486     0.826504    Uiso  ? H
   C1183      1.0     0.189964     0.368129     0.765398    Uiso  ? C
   H851       1.0     0.153329     0.381665     0.757249    Uiso  ? H
   C1184      1.0     0.209476     0.366990     0.783718    Uiso  ? C
   H852       1.0     0.225215     0.385171     0.816653    Uiso  ? H
   H853       1.0     0.188532     0.357108     0.748964    Uiso  ? H
   C1185      1.0     0.232216     0.350557     0.779449    Uiso  ? C
   H854       1.0     0.240899     0.357307     0.761235    Uiso  ? H
   H855       1.0     0.245820     0.352133     0.794767    Uiso  ? H
   N83        1.0     0.224794     0.324068     0.777758    Uiso  ? N
   C1186      1.0     0.236609     0.307769     0.762548    Uiso  ? C
   C1187      1.0     0.208703     0.310516     0.792528    Uiso  ? C
   C1188      1.0     0.225689     0.285271     0.766796    Uiso  ? C
   H856       1.0     0.250533     0.312730     0.747553    Uiso  ? H
   H857       1.0     0.196778     0.317977     0.807300    Uiso  ? H
   H858       1.0     0.228929     0.268780     0.754503    Uiso  ? H
   N84        1.0     0.209279     0.285972     0.786559    Uiso  ? N
   C1189      1.0     0.241143     0.700916     0.486312    Uiso  ? C
   C1190      1.0     0.252923     0.723768     0.492109    Uiso  ? C
   C1191      1.0     0.238836     0.706043     0.526433    Uiso  ? C
   N85        1.0     0.231766     0.690553     0.507201    Uiso  ? N
   H859       1.0     0.238587     0.691838     0.468089    Uiso  ? H
   H860       1.0     0.260787     0.736224     0.478087    Uiso  ? H
   H861       1.0     0.235383     0.702080     0.545421    Uiso  ? H
   N86        1.0     0.251166     0.727555     0.517622    Uiso  ? N
   C1192      1.0     0.261616     0.749162     0.532213    Uiso  ? C
   H862       1.0     0.279533     0.753125     0.524559    Uiso  ? H
   H863       1.0     0.250705     0.764954     0.526446    Uiso  ? H
   C1193      1.0     0.262009     0.744112     0.559991    Uiso  ? C
   C1194      1.0     0.249713     0.760645     0.577256    Uiso  ? C
   C1195      1.0     0.276913     0.725198     0.568862    Uiso  ? C
   C1196      1.0     0.250998     0.755528     0.602348    Uiso  ? C
   H864       1.0     0.239773     0.777442     0.569744    Uiso  ? H
   C1197      1.0     0.279129     0.720592     0.594904    Uiso  ? C
   H865       1.0     0.290724     0.715176     0.556623    Uiso  ? H
   C1198      1.0     0.265776     0.735563     0.612385    Uiso  ? C
   H866       1.0     0.241347     0.769278     0.614493    Uiso  ? H
   H867       1.0     0.290567     0.706500     0.603147    Uiso  ? H
   C1199      1.0     0.266150     0.730936     0.639243    Uiso  ? C
   C1200      1.0     0.261202     0.707112     0.650101    Uiso  ? C
   C1201      1.0     0.272869     0.751755     0.656159    Uiso  ? C
   C1202      1.0     0.262865     0.703844     0.676482    Uiso  ? C
   H868       1.0     0.258290     0.690725     0.637994    Uiso  ? H
   C1203      1.0     0.272793     0.747913     0.682046    Uiso  ? C
   H869       1.0     0.275370     0.769708     0.648916    Uiso  ? H
   C1204      1.0     0.267633     0.723866     0.691995    Uiso  ? C
   H870       1.0     0.259882     0.685545     0.685259    Uiso  ? H
   H871       1.0     0.277384     0.762785     0.695016    Uiso  ? H
   C1205      1.0     0.268258     0.722022     0.720818    Uiso  ? C
   H872       1.0     0.272523     0.703151     0.727238    Uiso  ? H
   H873       1.0     0.282267     0.734210     0.728922    Uiso  ? H
   N87        1.0     0.243994     0.730158     0.730527    Uiso  ? N
   C1206      1.0     0.223569     0.716051     0.729925    Uiso  ? C
   C1207      1.0     0.238547     0.750433     0.744721    Uiso  ? C
   C1208      1.0     0.204451     0.730372     0.740934    Uiso  ? C
   H874       1.0     0.222140     0.698595     0.718483    Uiso  ? H
   H875       1.0     0.252596     0.762730     0.752379    Uiso  ? H
   H876       1.0     0.184127     0.725130     0.741336    Uiso  ? H
   N88        1.0     0.214344     0.750701     0.750995    Uiso  ? N
   C1209      1.0     0.107389     0.483185     0.253436    Uiso  ? C
   C1210      1.0     0.105612     0.493219     0.229115    Uiso  ? C
   C1211      1.0     0.120409     0.522129     0.253863    Uiso  ? C
   N89        1.0     0.115493     0.501809     0.268854    Uiso  ? N
   H877       1.0     0.896090     0.466159     0.261015    Uiso  ? H
   H878       1.0     0.895590     0.483026     0.213119    Uiso  ? H
   H879       1.0     0.124781     0.539766     0.261332    Uiso  ? H
   N90        1.0     0.114593     0.517368     0.228839    Uiso  ? N
   C1212      1.0     0.112327     0.535337     0.208708    Uiso  ? C
   H880       1.0     0.131283     0.543892     0.207681    Uiso  ? H
   H881       1.0     0.110080     0.526264     0.189444    Uiso  ? H
   C1213      1.0     0.888876     0.554935     0.214054    Uiso  ? C
   C1214      1.0     0.862936     0.548783     0.215369    Uiso  ? C
   C1215      1.0     0.894811     0.581529     0.215852    Uiso  ? C
   C1216      1.0     0.844054     0.567008     0.220548    Uiso  ? C
   H882       1.0     0.857143     0.530523     0.209976    Uiso  ? H
   C1217      1.0     0.875670     0.599646     0.219152    Uiso  ? C
   H883       1.0     0.119861     0.589476     0.214670    Uiso  ? H
   C1218      1.0     0.850777     0.592124     0.222757    Uiso  ? C
   H884       1.0     0.825313     0.562040     0.224230    Uiso  ? H
   H885       1.0     0.881783     0.619014     0.220095    Uiso  ? H
   C1219      1.0     0.831441     0.611675     0.228709    Uiso  ? C
   C1220      1.0     0.837990     0.631586     0.245531    Uiso  ? C
   C1221      1.0     0.808306     0.612180     0.216872    Uiso  ? C
   C1222      1.0     0.819972     0.650867     0.252346    Uiso  ? C
   H886       1.0     0.857135     0.632217     0.251783    Uiso  ? H
   C1223      1.0     0.789869     0.629986     0.224077    Uiso  ? C
   H887       1.0     0.803075     0.596584     0.204792    Uiso  ? H
   C1224      1.0     0.794886     0.649244     0.241443    Uiso  ? C
   H888       1.0     0.824115     0.666632     0.265717    Uiso  ? H
   H889       1.0     0.771540     0.626593     0.216039    Uiso  ? H
   C1225      1.0     0.775511     0.669526     0.245725    Uiso  ? C
   H890       1.0     0.756760     0.660792     0.250297    Uiso  ? H
   H891       1.0     0.781760     0.682589     0.261175    Uiso  ? H
   N91        1.0     0.772932     0.685400     0.223061    Uiso  ? N
   C1226      1.0     0.756419     0.683845     0.203680    Uiso  ? C
   C1227      1.0     0.789119     0.704791     0.217058    Uiso  ? C
   C1228      1.0     0.763064     0.702482     0.185579    Uiso  ? C
   H892       1.0     0.742610     0.668669     0.201830    Uiso  ? H
   H893       1.0     0.805716     0.710042     0.228116    Uiso  ? H
   H894       1.0     0.755397     0.703259     0.167082    Uiso  ? H
   N92        1.0     0.782731     0.716274     0.195343    Uiso  ? N
   C1229      1.0     0.774515     0.288649     0.514209    Uiso  ? C
   C1230      1.0     0.760023     0.269468     0.505572    Uiso  ? C
   C1231      1.0     0.758094     0.300206     0.478860    Uiso  ? C
   N93        1.0     0.772588     0.308689     0.497788    Uiso  ? N
   H895       1.0     0.782504     0.289400     0.532098    Uiso  ? H
   H896       1.0     0.757531     0.251137     0.515393    Uiso  ? H
   H897       1.0     0.750887     0.311183     0.463109    Uiso  ? H
   N94        1.0     0.749542     0.276308     0.483282    Uiso  ? N
   C1232      1.0     0.731982     0.262401     0.466101    Uiso  ? C
   H898       1.0     0.733303     0.241091     0.468939    Uiso  ? H
   H899       1.0     0.710999     0.266834     0.470161    Uiso  ? H
   C1233      1.0     0.739276     0.266026     0.439602    Uiso  ? C
   C1234      1.0     0.762239     0.256439     0.430563    Uiso  ? C
   C1235      1.0     0.721772     0.274942     0.422656    Uiso  ? C
   C1236      1.0     0.767796     0.257599     0.404601    Uiso  ? C
   H900       1.0     0.777101     0.248016     0.442810    Uiso  ? H
   C1237      1.0     0.728472     0.279213     0.397523    Uiso  ? C
   H901       1.0     0.701947     0.280807     0.427061    Uiso  ? H
   C1238      1.0     0.751212     0.270098     0.387482    Uiso  ? C
   H902       1.0     0.787030     0.252500     0.399243    Uiso  ? H
   H903       1.0     0.715402     0.290592     0.386434    Uiso  ? H
   C1239      1.0     0.758256     0.275388     0.360626    Uiso  ? C
   C1240      1.0     0.774687     0.258708     0.347320    Uiso  ? C
   C1241      1.0     0.752984     0.298985     0.349536    Uiso  ? C
   C1242      1.0     0.785320     0.266046     0.324291    Uiso  ? C
   H904       1.0     0.779400     0.240358     0.356323    Uiso  ? H
   C1243      1.0     0.761239     0.304715     0.325865    Uiso  ? C
   H905       1.0     0.740636     0.313225     0.358690    Uiso  ? H
   C1244      1.0     0.777878     0.288038     0.311769    Uiso  ? C
   H906       1.0     0.798795     0.252604     0.315605    Uiso  ? H
   H907       1.0     0.757429     0.323907     0.319448    Uiso  ? H
   C1245      1.0     0.787927     0.295848     0.287183    Uiso  ? C
   H908       1.0     0.782024     0.315535     0.284237    Uiso  ? H
   H909       1.0     0.809088     0.297002     0.289207    Uiso  ? H
   N95        1.0     0.779969     0.280042     0.267143    Uiso  ? N
   C1246      1.0     0.759928     0.282453     0.252896    Uiso  ? C
   C1247      1.0     0.793570     0.262257     0.255690    Uiso  ? C
   C1248      1.0     0.761880     0.267862     0.232039    Uiso  ? C
   H910       1.0     0.744127     0.293537     0.261478    Uiso  ? H
   H911       1.0     0.813144     0.256562     0.261963    Uiso  ? H
   H912       1.0     0.748456     0.267697     0.216634    Uiso  ? H
   N96        1.0     0.783105     0.254223     0.234327    Uiso  ? N
