
#======================================================================
# CRYSTAL DATA
#----------------------------------------------------------------------
data_VESTA_phase_1

_chemical_name_common                  ' Atoms. Timestep: 0'
_cell_length_a                         47.153927
_cell_length_b                         47.153927
_cell_length_c                         47.153927
_cell_angle_alpha                      90.000000
_cell_angle_beta                       90.000000
_cell_angle_gamma                      90.000000
_cell_volume                           1.000000
_space_group_name_H-M_alt              'P 1'
_space_group_IT_number                 1

loop_
_space_group_symop_operation_xyz
   'x, y, z'

loop_
   _atom_site_label
   _atom_site_occupancy
   _atom_site_fract_x
   _atom_site_fract_y
   _atom_site_fract_z
   _atom_site_adp_type
   _atom_site_U_iso_or_equiv
   _atom_site_type_symbol
   C1         1.0     0.776326     0.256486     0.158144    Uiso  ? C
   C2         1.0     0.771640     0.270468     0.130980    Uiso  ? C
   C3         1.0     0.758402     0.296701     0.129106    Uiso  ? C
   H1         1.0     0.749962     0.305538     0.147498    Uiso  ? H
   C4         1.0     0.756602     0.311406     0.104618    Uiso  ? C
   H2         1.0     0.747376     0.333264     0.104795    Uiso  ? H
   C5         1.0     0.766995     0.298489     0.881162    Uiso  ? C
   H3         1.0     0.765642     0.310636     0.861426    Uiso  ? H
   C6         1.0     0.777268     0.270673     0.880918    Uiso  ? C
   C7         1.0     0.778615     0.257294     0.105895    Uiso  ? C
   H4         1.0     0.785411     0.236246     0.106635    Uiso  ? H
   C8         1.0     0.787933     0.258134     0.854226    Uiso  ? C
   C9         1.0     0.731558     0.202702     0.179443    Uiso  ? C
   C10        1.0     0.706862     0.192351     0.163124    Uiso  ? C
   C11        1.0     0.680737     0.206081     0.163156    Uiso  ? C
   H5         1.0     0.679883     0.228337     0.172497    Uiso  ? H
   C12        1.0     0.658699     0.197267     0.148483    Uiso  ? C
   H6         1.0     0.639837     0.208585     0.150529    Uiso  ? H
   C13        1.0     0.659770     0.172385     0.132605    Uiso  ? C
   H7         1.0     0.641353     0.166614     0.119891    Uiso  ? H
   C14        1.0     0.685462     0.157026     0.130531    Uiso  ? C
   C15        1.0     0.708506     0.166033     0.148135    Uiso  ? C
   H8         1.0     0.727800     0.153313     0.151477    Uiso  ? H
   C16        1.0     0.687856     0.130706     0.112905    Uiso  ? C
   C17        1.0     0.772596     0.188990     0.239957    Uiso  ? C
   C18        1.0     0.773550     0.168711     0.264583    Uiso  ? C
   C19        1.0     0.753435     0.167971     0.287415    Uiso  ? C
   H9         1.0     0.734497     0.181090     0.285241    Uiso  ? H
   C20        1.0     0.759013     0.155555     0.312993    Uiso  ? C
   H10        1.0     0.743141     0.159429     0.328559    Uiso  ? H
   C21        1.0     0.784126     0.139352     0.316138    Uiso  ? C
   H11        1.0     0.788705     0.128819     0.336641    Uiso  ? H
   C22        1.0     0.802691     0.135919     0.293720    Uiso  ? C
   C23        1.0     0.798159     0.152278     0.268509    Uiso  ? C
   H12        1.0     0.814650     0.152036     0.252569    Uiso  ? H
   C24        1.0     0.827872     0.116429     0.295845    Uiso  ? C
   C25        1.0     0.816946     0.247814     0.219007    Uiso  ? C
   C26        1.0     0.842249     0.264379     0.229072    Uiso  ? C
   C27        1.0     0.837732     0.288498     0.244882    Uiso  ? C
   H13        1.0     0.816726     0.296196     0.245965    Uiso  ? H
   C28        1.0     0.860703     0.302611     0.256828    Uiso  ? C
   H14        1.0     0.857168     0.321458     0.268250    Uiso  ? H
   C29        1.0     0.887577     0.289550     0.256098    Uiso  ? C
   H15        1.0     0.110580     0.296809     0.267071    Uiso  ? H
   C30        1.0     0.891952     0.266623     0.236233    Uiso  ? C
   C31        1.0     0.869513     0.255444     0.222126    Uiso  ? C
   H16        1.0     0.870545     0.237643     0.208861    Uiso  ? H
   C32        1.0     0.125454     0.254081     0.231059    Uiso  ? C
   C33        1.0     0.820740     0.221371     0.761517    Uiso  ? C
   C34        1.0     0.833096     0.211548     0.734292    Uiso  ? C
   C35        1.0     0.826008     0.224469     0.708364    Uiso  ? C
   H17        1.0     0.811327     0.242818     0.709155    Uiso  ? H
   C36        1.0     0.839265     0.215321     0.684527    Uiso  ? C
   H18        1.0     0.834665     0.227353     0.664586    Uiso  ? H
   C37        1.0     0.858561     0.192866     0.684406    Uiso  ? C
   H19        1.0     0.867629     0.186922     0.663515    Uiso  ? H
   C38        1.0     0.863095     0.178191     0.709356    Uiso  ? C
   C39        1.0     0.852320     0.188784     0.734463    Uiso  ? C
   H20        1.0     0.859963     0.179135     0.754436    Uiso  ? H
   C40        1.0     0.885660     0.155154     0.709859    Uiso  ? C
   C41        1.0     0.758792     0.211317     0.804958    Uiso  ? C
   C42        1.0     0.733407     0.194752     0.804086    Uiso  ? C
   C43        1.0     0.711172     0.201354     0.787488    Uiso  ? C
   H21        1.0     0.712073     0.220512     0.776021    Uiso  ? H
   C44        1.0     0.686374     0.185618     0.785655    Uiso  ? C
   H22        1.0     0.670836     0.191147     0.769718    Uiso  ? H
   C45        1.0     0.681778     0.163794     0.805408    Uiso  ? C
   H23        1.0     0.661594     0.151343     0.806506    Uiso  ? H
   C46        1.0     0.703516     0.156180     0.824789    Uiso  ? C
   C47        1.0     0.729013     0.172601     0.824257    Uiso  ? C
   H24        1.0     0.745404     0.164243     0.837371    Uiso  ? H
   C48        1.0     0.699877     0.132072     0.845396    Uiso  ? C
   C49        1.0     0.847523     0.267537     0.810697    Uiso  ? C
   C50        1.0     0.873580     0.284083     0.813740    Uiso  ? C
   C51        1.0     0.874163     0.313134     0.810822    Uiso  ? C
   H25        1.0     0.854411     0.323496     0.806476    Uiso  ? H
   C52        1.0     0.103161     0.328348     0.811078    Uiso  ? C
   H26        1.0     0.896583     0.351735     0.808003    Uiso  ? H
   C53        1.0     0.129165     0.314142     0.813432    Uiso  ? C
   H27        1.0     0.148773     0.325430     0.811534    Uiso  ? H
   C54        1.0     0.129315     0.285423     0.819935    Uiso  ? C
   C55        1.0     0.103939     0.270249     0.819633    Uiso  ? C
   H28        1.0     0.103885     0.248016     0.820639    Uiso  ? H
   C56        1.0     0.155818     0.270601     0.825446    Uiso  ? C
   C57        1.0     0.703533     0.853365     0.836438    Uiso  ? C
   C58        1.0     0.711430     0.833504     0.813517    Uiso  ? C
   C59        1.0     0.691850     0.826207     0.793345    Uiso  ? C
   H29        1.0     0.671453     0.834544     0.793290    Uiso  ? H
   C60        1.0     0.698961     0.806919     0.771813    Uiso  ? C
   H30        1.0     0.682652     0.801821     0.755783    Uiso  ? H
   C61        1.0     0.726451     0.794776     0.771436    Uiso  ? C
   H31        1.0     0.733087     0.784393     0.752719    Uiso  ? H
   C62        1.0     0.745360     0.799777     0.794482    Uiso  ? C
   C63        1.0     0.738552     0.820734     0.814289    Uiso  ? C
   H32        1.0     0.755859     0.826803     0.830167    Uiso  ? H
   C64        1.0     0.773907     0.785479     0.795020    Uiso  ? C
   C65        1.0     0.693156     0.846844     0.111267    Uiso  ? C
   C66        1.0     0.693163     0.821715     0.130306    Uiso  ? C
   C67        1.0     0.666762     0.810240     0.137258    Uiso  ? C
   H33        1.0     0.648704     0.816098     0.124792    Uiso  ? H
   C68        1.0     0.665027     0.787877     0.157417    Uiso  ? C
   H34        1.0     0.644085     0.778415     0.160778    Uiso  ? H
   C69        1.0     0.689606     0.774930     0.166763    Uiso  ? C
   H35        1.0     0.687922     0.755742     0.179227    Uiso  ? H
   C70        1.0     0.717345     0.785262     0.160015    Uiso  ? C
   C71        1.0     0.718075     0.807377     0.140082    Uiso  ? C
   H36        1.0     0.739193     0.815039     0.132246    Uiso  ? H
   C72        1.0     0.744791     0.770347     0.169085    Uiso  ? C
   C73        1.0     0.206300     0.222726     0.784188    Uiso  ? C
   C74        1.0     0.206946     0.206914     0.756213    Uiso  ? C
   C75        1.0     0.230985     0.208324     0.738868    Uiso  ? C
   H37        1.0     0.247698     0.224435     0.741328    Uiso  ? H
   C76        1.0     0.233754     0.189514     0.715941    Uiso  ? C
   H38        1.0     0.252590     0.191967     0.700396    Uiso  ? H
   C77        1.0     0.209981     0.172105     0.709176    Uiso  ? C
   H39        1.0     0.210142     0.158021     0.691525    Uiso  ? H
   C78        1.0     0.187082     0.170043     0.726831    Uiso  ? C
   C79        1.0     0.186471     0.186725     0.751385    Uiso  ? C
   H40        1.0     0.168417     0.184085     0.766028    Uiso  ? H
   C80        1.0     0.165153     0.148961     0.721548    Uiso  ? C
   C81        1.0     0.205422     0.263904     0.879726    Uiso  ? C
   C82        1.0     0.210210     0.274711     0.107872    Uiso  ? C
   C83        1.0     0.225513     0.299933     0.112778    Uiso  ? C
   H41        1.0     0.232003     0.309499     0.895269    Uiso  ? H
   C84        1.0     0.230317     0.309018     0.140258    Uiso  ? C
   H42        1.0     0.245106     0.326264     0.145321    Uiso  ? H
   C85        1.0     0.217650     0.295698     0.163291    Uiso  ? C
   H43        1.0     0.221382     0.303067     0.184272    Uiso  ? H
   C86        1.0     0.198001     0.273333     0.158685    Uiso  ? C
   C87        1.0     0.196627     0.260513     0.131421    Uiso  ? C
   H44        1.0     0.184060     0.242472     0.127384    Uiso  ? H
   C88        1.0     0.186407     0.258023     0.183801    Uiso  ? C
   C89        1.0     0.159211     0.204178     0.269132    Uiso  ? C
   C90        1.0     0.148620     0.189178     0.294275    Uiso  ? C
   C91        1.0     0.150014     0.200518     0.321745    Uiso  ? C
   H45        1.0     0.160638     0.221106     0.327441    Uiso  ? H
   C92        1.0     0.140053     0.184114     0.344241    Uiso  ? C
   H46        1.0     0.139158     0.192304     0.365080    Uiso  ? H
   C93        1.0     0.125261     0.157909     0.340358    Uiso  ? C
   H47        1.0     0.114947     0.147159     0.359035    Uiso  ? H
   C94        1.0     0.123397     0.147061     0.312564    Uiso  ? C
   C95        1.0     0.136023     0.162468     0.290286    Uiso  ? C
   H48        1.0     0.134195     0.153919     0.268267    Uiso  ? H
   C96        1.0     0.104449     0.123108     0.306518    Uiso  ? C
   O1         1.0     0.789547     0.232174     0.157714    Uiso  ? O
   O2         1.0     0.762024     0.263571     0.180649    Uiso  ? O
   O3         1.0     0.757516     0.193708     0.173577    Uiso  ? O
   O4         1.0     0.728286     0.224168     0.195615    Uiso  ? O
   O5         1.0     0.788947     0.184205     0.218453    Uiso  ? O
   O6         1.0     0.757933     0.212914     0.240816    Uiso  ? O
   O7         1.0     0.820972     0.226957     0.201206    Uiso  ? O
   O8         1.0     0.791861     0.254902     0.227975    Uiso  ? O
   O9         1.0     0.827597     0.208844     0.784854    Uiso  ? O
   O10        1.0     0.805836     0.244521     0.761986    Uiso  ? O
   O11        1.0     0.781246     0.201110     0.819061    Uiso  ? O
   O12        1.0     0.760775     0.235223     0.790946    Uiso  ? O
   O13        1.0     0.803756     0.235289     0.854222    Uiso  ? O
   O14        1.0     0.780360     0.269929     0.830341    Uiso  ? O
   O15        1.0     0.844346     0.243628     0.825361    Uiso  ? O
   O16        1.0     0.825408     0.278045     0.796342    Uiso  ? O
   O17        1.0     0.722640     0.861335     0.853838    Uiso  ? O
   O18        1.0     0.677037     0.862929     0.839873    Uiso  ? O
   O19        1.0     0.716365     0.861593     0.107469    Uiso  ? O
   O20        1.0     0.670833     0.853897     0.897682    Uiso  ? O
   O21        1.0     0.712595     0.120383     0.109539    Uiso  ? O
   O22        1.0     0.665884     0.119445     0.899417    Uiso  ? O
   O23        1.0     0.722575     0.120891     0.857380    Uiso  ? O
   O24        1.0     0.675913     0.120173     0.848305    Uiso  ? O
   O25        1.0     0.193208     0.211081     0.805995    Uiso  ? O
   O26        1.0     0.216572     0.248658     0.786898    Uiso  ? O
   O27        1.0     0.156520     0.243927     0.833564    Uiso  ? O
   O28        1.0     0.180026     0.283139     0.820503    Uiso  ? O
   O29        1.0     0.196018     0.238684     0.875834    Uiso  ? O
   O30        1.0     0.215374     0.278064     0.858699    Uiso  ? O
   O31        1.0     0.226192     0.209427     0.843667    Uiso  ? O
   O32        1.0     0.249993     0.251023     0.831738    Uiso  ? O
   O33        1.0     0.173995     0.233198     0.181031    Uiso  ? O
   O34        1.0     0.189414     0.268362     0.209336    Uiso  ? O
   O35        1.0     0.129294     0.233510     0.213122    Uiso  ? O
   O36        1.0     0.146498     0.262852     0.245726    Uiso  ? O
   O37        1.0     0.151566     0.195286     0.243978    Uiso  ? O
   O38        1.0     0.173749     0.227865     0.271607    Uiso  ? O
   O39        1.0     0.196553     0.193433     0.207720    Uiso  ? O
   O40        1.0     0.214623     0.226331     0.237177    Uiso  ? O
   O41        1.0     0.148453     0.880398     0.737530    Uiso  ? O
   O42        1.0     0.154149     0.881095     0.689076    Uiso  ? O
   O43        1.0     0.889316     0.882928     0.731373    Uiso  ? O
   O44        1.0     0.896002     0.884018     0.682936    Uiso  ? O
   O45        1.0     0.893373     0.144262     0.733791    Uiso  ? O
   O46        1.0     0.897987     0.144870     0.687025    Uiso  ? O
   O47        1.0     0.151430     0.140162     0.742584    Uiso  ? O
   O48        1.0     0.158615     0.140966     0.695998    Uiso  ? O
   O49        1.0     0.812834     0.178844     0.165351    Uiso  ? O
   O50        1.0     0.835384     0.186186     0.837225    Uiso  ? O
   O51        1.0     0.761793     0.891029     0.892202    Uiso  ? O
   O52        1.0     0.172302     0.189770     0.854511    Uiso  ? O
   O53        1.0     0.140644     0.184583     0.186303    Uiso  ? O
   O54        1.0     0.114943     0.112036     0.777431    Uiso  ? O
   Zn1        1.0     0.792556     0.205387     0.185343    Uiso  ? Zn
   Zn2        1.0     0.756998     0.240512     0.214409    Uiso  ? Zn
   Zn3        1.0     0.816751     0.218529     0.821862    Uiso  ? Zn
   Zn4        1.0     0.789846     0.260384     0.793474    Uiso  ? Zn
   Zn5        1.0     0.723328     0.887850     0.883889    Uiso  ? Zn
   Zn6        1.0     0.666365     0.885165     0.872386    Uiso  ? Zn
   Zn7        1.0     0.189440     0.222544     0.841867    Uiso  ? Zn
   Zn8        1.0     0.216485     0.267974     0.822017    Uiso  ? Zn
   Zn9        1.0     0.160342     0.210587     0.208995    Uiso  ? Zn
   Zn10       1.0     0.183213     0.250499     0.242890    Uiso  ? Zn
   Zn11       1.0     0.122366     0.114755     0.740071    Uiso  ? Zn
   Zn12       1.0     0.130353     0.117205     0.684056    Uiso  ? Zn
   C97        1.0     0.220703     0.737069     0.853039    Uiso  ? C
   C98        1.0     0.221810     0.717535     0.877084    Uiso  ? C
   C99        1.0     0.218504     0.688193     0.875247    Uiso  ? C
   H49        1.0     0.218714     0.680310     0.853302    Uiso  ? H
   C100       1.0     0.213960     0.670990     0.899082    Uiso  ? C
   H50        1.0     0.212443     0.649043     0.897794    Uiso  ? H
   C101       1.0     0.213448     0.684516     0.125284    Uiso  ? C
   H51        1.0     0.210685     0.670708     0.142903    Uiso  ? H
   C102       1.0     0.213741     0.714272     0.127475    Uiso  ? C
   C103       1.0     0.218542     0.730327     0.103747    Uiso  ? C
   H52        1.0     0.219747     0.752820     0.107391    Uiso  ? H
   C104       1.0     0.204675     0.728256     0.153742    Uiso  ? C
   C105       1.0     0.262602     0.793747     0.824471    Uiso  ? C
   C106       1.0     0.287442     0.807377     0.837138    Uiso  ? C
   C107       1.0     0.312974     0.794757     0.837369    Uiso  ? C
   H53        1.0     0.316708     0.775019     0.829219    Uiso  ? H
   C108       1.0     0.335339     0.805606     0.853463    Uiso  ? C
   H54        1.0     0.356327     0.796220     0.853194    Uiso  ? H
   C109       1.0     0.332189     0.830894     0.869144    Uiso  ? C
   H55        1.0     0.348939     0.838836     0.882241    Uiso  ? H
   C110       1.0     0.305706     0.844583     0.869810    Uiso  ? C
   C111       1.0     0.283903     0.833265     0.853162    Uiso  ? C
   H56        1.0     0.263372     0.842895     0.854610    Uiso  ? H
   C112       1.0     0.301411     0.868081     0.890011    Uiso  ? C
   C113       1.0     0.213894     0.798748     0.768955    Uiso  ? C
   C114       1.0     0.212182     0.816424     0.742505    Uiso  ? C
   C115       1.0     0.231038     0.811856     0.719956    Uiso  ? C
   H57        1.0     0.247212     0.796619     0.720157    Uiso  ? H
   C116       1.0     0.227104     0.829534     0.695209    Uiso  ? C
   H58        1.0     0.243457     0.829619     0.679206    Uiso  ? H
   C117       1.0     0.204669     0.847887     0.693258    Uiso  ? C
   H59        1.0     0.205125     0.861534     0.674490    Uiso  ? H
   C118       1.0     0.184923     0.850281     0.716024    Uiso  ? C
   C119       1.0     0.191128     0.837097     0.740669    Uiso  ? C
   H60        1.0     0.178016     0.840969     0.758676    Uiso  ? H
   C120       1.0     0.159678     0.869752     0.714276    Uiso  ? C
   C121       1.0     0.175925     0.742517     0.790022    Uiso  ? C
   C122       1.0     0.150644     0.727995     0.778920    Uiso  ? C
   C123       1.0     0.152370     0.707210     0.757590    Uiso  ? C
   H61        1.0     0.173021     0.697963     0.751826    Uiso  ? H
   C124       1.0     0.128800     0.694089     0.747777    Uiso  ? C
   H62        1.0     0.131337     0.679193     0.730988    Uiso  ? H
   C125       1.0     0.897175     0.705242     0.753823    Uiso  ? C
   H63        1.0     0.878956     0.698180     0.741578    Uiso  ? H
   C126       1.0     0.893402     0.725074     0.775847    Uiso  ? C
   C127       1.0     0.124026     0.736043     0.788760    Uiso  ? C
   H64        1.0     0.122504     0.751346     0.805982    Uiso  ? H
   C128       1.0     0.865950     0.736327     0.783089    Uiso  ? C
   C129       1.0     0.172599     0.774260     0.242392    Uiso  ? C
   C130       1.0     0.162278     0.785479     0.269938    Uiso  ? C
   C131       1.0     0.171422     0.773191     0.295620    Uiso  ? C
   H65        1.0     0.187862     0.757006     0.296994    Uiso  ? H
   C132       1.0     0.157027     0.780417     0.321501    Uiso  ? C
   H66        1.0     0.164049     0.768727     0.340269    Uiso  ? H
   C133       1.0     0.136078     0.801280     0.321942    Uiso  ? C
   H67        1.0     0.125526     0.806877     0.340925    Uiso  ? H
   C134       1.0     0.129419     0.815801     0.296587    Uiso  ? C
   C135       1.0     0.143679     0.807772     0.270767    Uiso  ? C
   H68        1.0     0.138628     0.818380     0.252103    Uiso  ? H
   C136       1.0     0.108260     0.838422     0.295669    Uiso  ? C
   C137       1.0     0.230866     0.780139     0.198160    Uiso  ? C
   C138       1.0     0.257860     0.795735     0.195989    Uiso  ? C
   C139       1.0     0.282815     0.785765     0.210225    Uiso  ? C
   H69        1.0     0.282342     0.765033     0.220583    Uiso  ? H
   C140       1.0     0.308278     0.800061     0.207245    Uiso  ? C
   H70        1.0     0.327064     0.789678     0.215478    Uiso  ? H
   C141       1.0     0.309453     0.823109     0.188859    Uiso  ? C
   H71        1.0     0.330043     0.829316     0.184015    Uiso  ? H
   C142       1.0     0.285922     0.835627     0.177012    Uiso  ? C
   C143       1.0     0.259739     0.821720     0.181479    Uiso  ? C
   H72        1.0     0.240608     0.830701     0.172120    Uiso  ? H
   C144       1.0     0.287826     0.862240     0.160732    Uiso  ? C
   C145       1.0     0.145155     0.720504     0.200648    Uiso  ? C
   C146       1.0     0.118205     0.706953     0.202769    Uiso  ? C
   C147       1.0     0.117450     0.679517     0.212403    Uiso  ? C
   H73        1.0     0.136547     0.668685     0.215465    Uiso  ? H
   C148       1.0     0.886567     0.666462     0.218521    Uiso  ? C
   H74        1.0     0.884188     0.644682     0.224930    Uiso  ? H
   C149       1.0     0.861297     0.681725     0.212948    Uiso  ? C
   H75        1.0     0.839195     0.671808     0.217550    Uiso  ? H
   C150       1.0     0.862094     0.708111     0.200162    Uiso  ? C
   C151       1.0     0.887310     0.721170     0.195560    Uiso  ? C
   H76        1.0     0.888012     0.741472     0.184993    Uiso  ? H
   C152       1.0     0.836374     0.722290     0.191701    Uiso  ? C
   C153       1.0     0.287321     0.139087     0.168468    Uiso  ? C
   C154       1.0     0.281123     0.161329     0.191658    Uiso  ? C
   C155       1.0     0.304120     0.172486     0.208007    Uiso  ? C
   H77        1.0     0.325895     0.165100     0.207918    Uiso  ? H
   C156       1.0     0.298862     0.192951     0.229674    Uiso  ? C
   H78        1.0     0.315448     0.203992     0.239962    Uiso  ? H
   C157       1.0     0.271904     0.203688     0.232904    Uiso  ? C
   H79        1.0     0.269622     0.221952     0.245507    Uiso  ? H
   C158       1.0     0.248268     0.191789     0.218483    Uiso  ? C
   C159       1.0     0.254196     0.172251     0.196663    Uiso  ? C
   H80        1.0     0.236418     0.163234     0.185930    Uiso  ? H
   C160       1.0     0.218320     0.203951     0.221215    Uiso  ? C
   C161       1.0     0.297053     0.146580     0.893933    Uiso  ? C
   C162       1.0     0.299441     0.172459     0.876312    Uiso  ? C
   C163       1.0     0.326639     0.183639     0.869031    Uiso  ? C
   H81        1.0     0.346110     0.174304     0.875334    Uiso  ? H
   C164       1.0     0.327935     0.207088     0.852447    Uiso  ? C
   H82        1.0     0.348650     0.214716     0.846628    Uiso  ? H
   C165       1.0     0.303963     0.221848     0.843339    Uiso  ? C
   H83        1.0     0.307125     0.240782     0.831049    Uiso  ? H
   C166       1.0     0.277462     0.211111     0.850812    Uiso  ? C
   C167       1.0     0.275195     0.186468     0.866671    Uiso  ? C
   H84        1.0     0.254756     0.179979     0.872441    Uiso  ? H
   C168       1.0     0.250360     0.224749     0.842107    Uiso  ? C
   C169       1.0     0.790724     0.765977     0.229273    Uiso  ? C
   C170       1.0     0.788743     0.783661     0.255494    Uiso  ? C
   C171       1.0     0.765286     0.781358     0.272468    Uiso  ? C
   H85        1.0     0.752954     0.762830     0.269435    Uiso  ? H
   C172       1.0     0.760690     0.799495     0.295641    Uiso  ? C
   H86        1.0     0.741228     0.797972     0.310034    Uiso  ? H
   C173       1.0     0.779560     0.822532     0.298665    Uiso  ? C
   H87        1.0     0.773996     0.839182     0.312687    Uiso  ? H
   C174       1.0     0.804190     0.823020     0.283366    Uiso  ? C
   C175       1.0     0.809318     0.803331     0.261752    Uiso  ? C
   H88        1.0     0.830205     0.802801     0.251626    Uiso  ? H
   C176       1.0     0.826322     0.843213     0.288725    Uiso  ? C
   C177       1.0     0.790768     0.721249     0.134571    Uiso  ? C
   C178       1.0     0.792412     0.708516     0.105187    Uiso  ? C
   C179       1.0     0.783140     0.679973     0.101233    Uiso  ? C
   H89        1.0     0.782224     0.664371     0.119484    Uiso  ? H
   C180       1.0     0.779423     0.668282     0.874045    Uiso  ? C
   H90        1.0     0.771109     0.646710     0.872221    Uiso  ? H
   C181       1.0     0.788601     0.685364     0.851238    Uiso  ? C
   H91        1.0     0.789926     0.677734     0.829963    Uiso  ? H
   C182       1.0     0.796927     0.712530     0.855459    Uiso  ? C
   C183       1.0     0.800284     0.723492     0.882926    Uiso  ? C
   H92        1.0     0.808659     0.744080     0.884360    Uiso  ? H
   C184       1.0     0.805668     0.730429     0.831681    Uiso  ? C
   C185       1.0     0.830421     0.787780     0.746013    Uiso  ? C
   C186       1.0     0.840720     0.804750     0.721001    Uiso  ? C
   C187       1.0     0.827069     0.800807     0.694723    Uiso  ? C
   H93        1.0     0.808398     0.787443     0.695355    Uiso  ? H
   C188       1.0     0.836158     0.816662     0.671169    Uiso  ? C
   H94        1.0     0.826345     0.812961     0.651503    Uiso  ? H
   C189       1.0     0.855662     0.838202     0.674630    Uiso  ? C
   H95        1.0     0.860786     0.849563     0.654809    Uiso  ? H
   C190       1.0     0.866457     0.846430     0.701399    Uiso  ? C
   C191       1.0     0.859467     0.828635     0.724867    Uiso  ? C
   H96        1.0     0.866368     0.834026     0.745922    Uiso  ? H
   C192       1.0     0.883965     0.872655     0.705817    Uiso  ? C
   O55        1.0     0.208711     0.762598     0.854203    Uiso  ? O
   O56        1.0     0.233190     0.729804     0.829397    Uiso  ? O
   O57        1.0     0.236935     0.801914     0.831953    Uiso  ? O
   O58        1.0     0.265843     0.771529     0.808345    Uiso  ? O
   O59        1.0     0.200448     0.807861     0.790319    Uiso  ? O
   O60        1.0     0.228732     0.775238     0.768613    Uiso  ? O
   O61        1.0     0.173265     0.763913     0.807878    Uiso  ? O
   O62        1.0     0.201704     0.733023     0.783100    Uiso  ? O
   O63        1.0     0.167423     0.786768     0.217934    Uiso  ? O
   O64        1.0     0.187996     0.750655     0.242649    Uiso  ? O
   O65        1.0     0.207822     0.790236     0.187446    Uiso  ? O
   O66        1.0     0.230970     0.753853     0.208997    Uiso  ? O
   O67        1.0     0.191679     0.752415     0.153651    Uiso  ? O
   O68        1.0     0.210028     0.716212     0.178745    Uiso  ? O
   O69        1.0     0.146519     0.744818     0.187427    Uiso  ? O
   O70        1.0     0.167520     0.709033     0.211434    Uiso  ? O
   O71        1.0     0.265147     0.129345     0.154421    Uiso  ? O
   O72        1.0     0.313124     0.131934     0.162208    Uiso  ? O
   O73        1.0     0.271955     0.138417     0.101479    Uiso  ? O
   O74        1.0     0.319915     0.137499     0.104936    Uiso  ? O
   O75        1.0     0.276576     0.876962     0.896051    Uiso  ? O
   O76        1.0     0.321968     0.877043     0.106300    Uiso  ? O
   O77        1.0     0.265105     0.872723     0.147876    Uiso  ? O
   O78        1.0     0.312891     0.873605     0.155296    Uiso  ? O
   O79        1.0     0.805266     0.776235     0.207623    Uiso  ? O
   O80        1.0     0.774409     0.742689     0.225443    Uiso  ? O
   O81        1.0     0.836309     0.745094     0.176255    Uiso  ? O
   O82        1.0     0.811677     0.712520     0.198519    Uiso  ? O
   O83        1.0     0.800159     0.747170     0.138184    Uiso  ? O
   O84        1.0     0.779677     0.707023     0.155559    Uiso  ? O
   O85        1.0     0.770289     0.782408     0.166714    Uiso  ? O
   O86        1.0     0.743650     0.743629     0.178894    Uiso  ? O
   O87        1.0     0.822074     0.752586     0.836743    Uiso  ? O
   O88        1.0     0.799680     0.722644     0.805828    Uiso  ? O
   O89        1.0     0.863310     0.755984     0.802695    Uiso  ? O
   O90        1.0     0.843527     0.729585     0.768013    Uiso  ? O
   O91        1.0     0.836162     0.795656     0.772157    Uiso  ? O
   O92        1.0     0.816745     0.763167     0.742531    Uiso  ? O
   O93        1.0     0.795188     0.793673     0.811252    Uiso  ? O
   O94        1.0     0.776988     0.763860     0.777158    Uiso  ? O
   O95        1.0     0.840817     0.111318     0.271435    Uiso  ? O
   O96        1.0     0.833414     0.897535     0.319860    Uiso  ? O
   O97        1.0     0.895695     0.114721     0.280864    Uiso  ? O
   O98        1.0     0.885819     0.110775     0.326843    Uiso  ? O
   O99        1.0     0.102013     0.852968     0.273219    Uiso  ? O
   O100       1.0     0.890463     0.845503     0.318447    Uiso  ? O
   O101       1.0     0.842310     0.853543     0.268451    Uiso  ? O
   O102       1.0     0.834037     0.846818     0.316053    Uiso  ? O
   O103       1.0     0.178315     0.811161     0.844212    Uiso  ? O
   O104       1.0     0.153907     0.796810     0.162070    Uiso  ? O
   O105       1.0     0.225660     0.104495     0.116994    Uiso  ? O
   O106       1.0     0.826203     0.798451     0.156745    Uiso  ? O
   O107       1.0     0.849224     0.805015     0.829955    Uiso  ? O
   O108       1.0     0.874488     0.886586     0.232261    Uiso  ? O
   Zn13       1.0     0.201384     0.786461     0.823949    Uiso  ? Zn
   Zn14       1.0     0.235037     0.748513     0.796159    Uiso  ? Zn
   Zn15       1.0     0.174898     0.770937     0.184299    Uiso  ? Zn
   Zn16       1.0     0.201990     0.729844     0.212543    Uiso  ? Zn
   Zn17       1.0     0.265836     0.107239     0.122292    Uiso  ? Zn
   Zn18       1.0     0.320409     0.109939     0.132603    Uiso  ? Zn
   Zn19       1.0     0.806523     0.767198     0.170319    Uiso  ? Zn
   Zn20       1.0     0.774855     0.722820     0.190661    Uiso  ? Zn
   Zn21       1.0     0.831213     0.777354     0.808716    Uiso  ? Zn
   Zn22       1.0     0.806767     0.740299     0.771936    Uiso  ? Zn
   Zn23       1.0     0.869434     0.880451     0.269459    Uiso  ? Zn
   Zn24       1.0     0.863290     0.872619     0.325624    Uiso  ? Zn
   H97        1.0     0.133638     0.793690     0.165658    Uiso  ? H
   H98        1.0     0.154881     0.786350     0.144184    Uiso  ? H
   H99        1.0     0.825461     0.183932     0.856400    Uiso  ? H
   H100       1.0     0.828201     0.168133     0.826422    Uiso  ? H
   H101       1.0     0.131313     0.122866     0.785551    Uiso  ? H
   H102       1.0     0.120275     0.886440     0.781327    Uiso  ? H
   H103       1.0     0.154537     0.195753     0.864476    Uiso  ? H
   H104       1.0     0.185866     0.182223     0.868677    Uiso  ? H
   H105       1.0     0.855495     0.884495     0.224343    Uiso  ? H
   H106       1.0     0.879821     0.113388     0.229515    Uiso  ? H
   H107       1.0     0.820200     0.163764     0.178346    Uiso  ? H
   H108       1.0     0.829683     0.189766     0.162097    Uiso  ? H
   H109       1.0     0.155248     0.171271     0.179044    Uiso  ? H
   H110       1.0     0.128005     0.175154     0.199172    Uiso  ? H
   H111       1.0     0.844715     0.799944     0.164895    Uiso  ? H
   H112       1.0     0.830033     0.795300     0.135374    Uiso  ? H
   H113       1.0     0.768049     0.115466     0.898717    Uiso  ? H
   H114       1.0     0.769809     0.889701     0.873391    Uiso  ? H
   H115       1.0     0.836561     0.812571     0.846085    Uiso  ? H
   H116       1.0     0.854485     0.819989     0.815449    Uiso  ? H
   H117       1.0     0.218992     0.878714     0.119371    Uiso  ? H
   H118       1.0     0.218055     0.112067     0.136102    Uiso  ? H
   H119       1.0     0.183714     0.829719     0.839235    Uiso  ? H
   H120       1.0     0.185241     0.811553     0.864073    Uiso  ? H
   C193       1.0     0.741479     0.362099     0.548763    Uiso  ? C
   C194       1.0     0.719540     0.379373     0.562353    Uiso  ? C
   C195       1.0     0.699016     0.366657     0.579611    Uiso  ? C
   H121       1.0     0.698882     0.344334     0.583761    Uiso  ? H
   C196       1.0     0.681624     0.382602     0.597361    Uiso  ? C
   H122       1.0     0.666314     0.371980     0.610478    Uiso  ? H
   C197       1.0     0.684851     0.412528     0.596155    Uiso  ? C
   H123       1.0     0.672064     0.424881     0.609394    Uiso  ? H
   C198       1.0     0.704714     0.424883     0.578918    Uiso  ? C
   C199       1.0     0.721983     0.408386     0.562045    Uiso  ? C
   H124       1.0     0.737825     0.420461     0.549639    Uiso  ? H
   C200       1.0     0.707153     0.457453     0.580088    Uiso  ? C
   C201       1.0     0.752008     0.351689     0.480162    Uiso  ? C
   C202       1.0     0.736179     0.360172     0.453944    Uiso  ? C
   C203       1.0     0.715362     0.342973     0.440702    Uiso  ? C
   H125       1.0     0.710266     0.323524     0.448939    Uiso  ? H
   C204       1.0     0.702636     0.351941     0.415313    Uiso  ? C
   H126       1.0     0.686308     0.339164     0.403939    Uiso  ? H
   C205       1.0     0.707528     0.378531     0.404711    Uiso  ? C
   H127       1.0     0.695930     0.386850     0.386185    Uiso  ? H
   C206       1.0     0.727202     0.395662     0.417480    Uiso  ? C
   C207       1.0     0.740546     0.386530     0.442524    Uiso  ? C
   H128       1.0     0.754723     0.400516     0.454217    Uiso  ? H
   C208       1.0     0.734565     0.424031     0.405812    Uiso  ? C
   C209       1.0     0.814800     0.312244     0.492944    Uiso  ? C
   C210       1.0     0.836540     0.298289     0.473709    Uiso  ? C
   C211       1.0     0.827503     0.276442     0.455560    Uiso  ? C
   H129       1.0     0.804561     0.269409     0.458459    Uiso  ? H
   C212       1.0     0.846460     0.263054     0.437400    Uiso  ? C
   H130       1.0     0.839939     0.244938     0.426326    Uiso  ? H
   C213       1.0     0.875160     0.274177     0.435602    Uiso  ? C
   H131       1.0     0.889566     0.265369     0.419790    Uiso  ? H
   C214       1.0     0.882956     0.297812     0.452075    Uiso  ? C
   C215       1.0     0.863935     0.309921     0.471253    Uiso  ? C
   H132       1.0     0.870999     0.327833     0.484554    Uiso  ? H
   C216       1.0     0.116185     0.309554     0.451564    Uiso  ? C
   C217       1.0     0.801675     0.323256     0.567697    Uiso  ? C
   C218       1.0     0.818427     0.314786     0.594095    Uiso  ? C
   C219       1.0     0.807579     0.294478     0.612107    Uiso  ? C
   H133       1.0     0.787744     0.285385     0.607600    Uiso  ? H
   C220       1.0     0.820976     0.288863     0.638378    Uiso  ? C
   H134       1.0     0.812389     0.273579     0.651938    Uiso  ? H
   C221       1.0     0.847135     0.301723     0.643735    Uiso  ? C
   H135       1.0     0.857840     0.295611     0.663171    Uiso  ? H
   C222       1.0     0.858103     0.321604     0.624869    Uiso  ? C
   C223       1.0     0.843725     0.327648     0.599274    Uiso  ? C
   H136       1.0     0.850852     0.345721     0.585409    Uiso  ? H
   C224       1.0     0.883893     0.336674     0.630981    Uiso  ? C
   C225       1.0     0.716599     0.563130     0.580463    Uiso  ? C
   C226       1.0     0.719406     0.594897     0.582690    Uiso  ? C
   C227       1.0     0.695480     0.611852     0.588919    Uiso  ? C
   H137       1.0     0.673917     0.602979     0.593046    Uiso  ? H
   C228       1.0     0.699612     0.640558     0.593116    Uiso  ? C
   H138       1.0     0.679482     0.653015     0.598256    Uiso  ? H
   C229       1.0     0.725802     0.654035     0.587120    Uiso  ? C
   H139       1.0     0.725752     0.676521     0.592068    Uiso  ? H
   C230       1.0     0.749158     0.637657     0.579539    Uiso  ? C
   C231       1.0     0.746178     0.608221     0.578322    Uiso  ? C
   H140       1.0     0.763500     0.594576     0.571856    Uiso  ? H
   C232       1.0     0.776602     0.650540     0.574398    Uiso  ? C
   C233       1.0     0.694607     0.513147     0.534145    Uiso  ? C
   C234       1.0     0.683303     0.511506     0.505066    Uiso  ? C
   C235       1.0     0.654631     0.514670     0.499079    Uiso  ? C
   H141       1.0     0.638671     0.520464     0.514280    Uiso  ? H
   C236       1.0     0.642923     0.509419     0.472636    Uiso  ? C
   H142       1.0     0.619487     0.508369     0.468861    Uiso  ? H
   C237       1.0     0.661227     0.503487     0.449528    Uiso  ? C
   H143       1.0     0.652882     0.499662     0.429297    Uiso  ? H
   C238       1.0     0.691093     0.499475     0.454427    Uiso  ? C
   C239       1.0     0.701266     0.503655     0.482164    Uiso  ? C
   H144       1.0     0.723902     0.504232     0.486259    Uiso  ? H
   C240       1.0     0.710224     0.491389     0.430262    Uiso  ? C
   C241       1.0     0.729582     0.508357     0.632487    Uiso  ? C
   C242       1.0     0.739381     0.508588     0.662329    Uiso  ? C
   C243       1.0     0.721067     0.503521     0.685388    Uiso  ? C
   H145       1.0     0.698123     0.501689     0.682688    Uiso  ? H
   C244       1.0     0.731176     0.502978     0.713180    Uiso  ? C
   H146       1.0     0.717394     0.496913     0.730029    Uiso  ? H
   C245       1.0     0.760398     0.509402     0.717445    Uiso  ? C
   H147       1.0     0.768280     0.503905     0.738531    Uiso  ? H
   C246       1.0     0.778500     0.514835     0.695304    Uiso  ? C
   C247       1.0     0.767969     0.514057     0.667722    Uiso  ? C
   H148       1.0     0.782311     0.518604     0.649862    Uiso  ? H
   C248       1.0     0.809085     0.522341     0.698797    Uiso  ? C
   C249       1.0     0.749438     0.526372     0.381097    Uiso  ? C
   C250       1.0     0.754286     0.554096     0.369088    Uiso  ? C
   C251       1.0     0.735914     0.564348     0.347798    Uiso  ? C
   H149       1.0     0.716096     0.552516     0.341921    Uiso  ? H
   C252       1.0     0.743419     0.588106     0.330132    Uiso  ? C
   H150       1.0     0.730529     0.591936     0.311854    Uiso  ? H
   C253       1.0     0.768581     0.602686     0.336070    Uiso  ? C
   H151       1.0     0.776127     0.620214     0.321043    Uiso  ? H
   C254       1.0     0.787091     0.594180     0.358575    Uiso  ? C
   C255       1.0     0.780076     0.569355     0.374235    Uiso  ? C
   H152       1.0     0.794236     0.562199     0.391404    Uiso  ? H
   C256       1.0     0.814234     0.609869     0.363716    Uiso  ? C
   C257       1.0     0.777499     0.460797     0.354107    Uiso  ? C
   C258       1.0     0.796679     0.455233     0.329638    Uiso  ? C
   C259       1.0     0.786911     0.438152     0.306777    Uiso  ? C
   H153       1.0     0.763988     0.433894     0.303066    Uiso  ? H
   C260       1.0     0.806924     0.429638     0.285839    Uiso  ? C
   H154       1.0     0.799680     0.422603     0.265164    Uiso  ? H
   C261       1.0     0.834582     0.437168     0.286986    Uiso  ? C
   H155       1.0     0.848619     0.427534     0.270954    Uiso  ? H
   C262       1.0     0.844811     0.452431     0.310849    Uiso  ? C
   C263       1.0     0.826695     0.460011     0.332773    Uiso  ? C
   H156       1.0     0.834724     0.470324     0.352292    Uiso  ? H
   C264       1.0     0.875667     0.457559     0.313629    Uiso  ? C
   C265       1.0     0.854436     0.583222     0.687625    Uiso  ? C
   C266       1.0     0.851722     0.614240     0.679874    Uiso  ? C
   C267       1.0     0.851945     0.634984     0.700284    Uiso  ? C
   H157       1.0     0.855060     0.632242     0.721852    Uiso  ? H
   C268       1.0     0.849332     0.663835     0.691949    Uiso  ? C
   H158       1.0     0.853270     0.677683     0.708489    Uiso  ? H
   C269       1.0     0.845093     0.671077     0.663564    Uiso  ? C
   H159       1.0     0.844738     0.693609     0.657458    Uiso  ? H
   C270       1.0     0.844654     0.649664     0.642950    Uiso  ? C
   C271       1.0     0.850025     0.621062     0.651204    Uiso  ? C
   H160       1.0     0.849436     0.604041     0.633464    Uiso  ? H
   C272       1.0     0.837922     0.656206     0.612930    Uiso  ? C
   C273       1.0     0.869627     0.479369     0.706659    Uiso  ? C
   C274       1.0     0.876901     0.450478     0.713165    Uiso  ? C
   C275       1.0     0.877904     0.440829     0.740997    Uiso  ? C
   H161       1.0     0.874153     0.454278     0.758237    Uiso  ? H
   C276       1.0     0.882835     0.412568     0.746842    Uiso  ? C
   H162       1.0     0.885878     0.406475     0.768410    Uiso  ? H
   C277       1.0     0.888334     0.392975     0.724405    Uiso  ? C
   H163       1.0     0.893337     0.372067     0.730415    Uiso  ? H
   C278       1.0     0.891710     0.403388     0.697349    Uiso  ? C
   C279       1.0     0.884570     0.431812     0.691012    Uiso  ? C
   H164       1.0     0.886438     0.439556     0.670532    Uiso  ? H
   C280       1.0     0.110671     0.386553     0.675035    Uiso  ? C
   C281       1.0     0.155171     0.330528     0.597612    Uiso  ? C
   C282       1.0     0.169482     0.314585     0.574731    Uiso  ? C
   C283       1.0     0.187345     0.291026     0.581594    Uiso  ? C
   H165       1.0     0.191824     0.286642     0.604003    Uiso  ? H
   C284       1.0     0.201416     0.274162     0.561956    Uiso  ? C
   H166       1.0     0.214954     0.257213     0.570254    Uiso  ? H
   C285       1.0     0.197043     0.280539     0.534249    Uiso  ? C
   H167       1.0     0.205579     0.267384     0.516583    Uiso  ? H
   C286       1.0     0.180094     0.303952     0.526260    Uiso  ? C
   C287       1.0     0.167501     0.321303     0.546562    Uiso  ? C
   H168       1.0     0.151672     0.336835     0.538791    Uiso  ? H
   C288       1.0     0.174762     0.311230     0.496564    Uiso  ? C
   O109       1.0     0.765341     0.375761     0.541676    Uiso  ? O
   O110       1.0     0.738872     0.334852     0.545065    Uiso  ? O
   O111       1.0     0.774634     0.366182     0.487595    Uiso  ? O
   O112       1.0     0.744147     0.328834     0.493181    Uiso  ? O
   O113       1.0     0.820403     0.338748     0.501940    Uiso  ? O
   O114       1.0     0.791328     0.299657     0.500296    Uiso  ? O
   O115       1.0     0.809138     0.345481     0.554196    Uiso  ? O
   O116       1.0     0.782966     0.306386     0.556103    Uiso  ? O
   O117       1.0     0.740141     0.548642     0.574735    Uiso  ? O
   O118       1.0     0.693542     0.550166     0.588026    Uiso  ? O
   O119       1.0     0.722053     0.513996     0.538800    Uiso  ? O
   O120       1.0     0.677433     0.510861     0.555600    Uiso  ? O
   O121       1.0     0.730763     0.469830     0.573274    Uiso  ? O
   O122       1.0     0.685676     0.473324     0.588306    Uiso  ? O
   O123       1.0     0.747434     0.512187     0.611708    Uiso  ? O
   O124       1.0     0.702248     0.508318     0.627707    Uiso  ? O
   O125       1.0     0.768257     0.514706     0.399306    Uiso  ? O
   O126       1.0     0.730398     0.508893     0.369885    Uiso  ? O
   O127       1.0     0.787013     0.470014     0.378275    Uiso  ? O
   O128       1.0     0.750144     0.461527     0.349100    Uiso  ? O
   O129       1.0     0.754477     0.439276     0.417402    Uiso  ? O
   O130       1.0     0.718045     0.435239     0.387623    Uiso  ? O
   O131       1.0     0.737890     0.490165     0.435979    Uiso  ? O
   O132       1.0     0.699739     0.484125     0.405757    Uiso  ? O
   O133       1.0     0.858911     0.565843     0.666700    Uiso  ? O
   O134       1.0     0.851491     0.573484     0.714433    Uiso  ? O
   O135       1.0     0.825287     0.522612     0.675970    Uiso  ? O
   O136       1.0     0.819345     0.532030     0.723003    Uiso  ? O
   O137       1.0     0.870637     0.489597     0.679864    Uiso  ? O
   O138       1.0     0.862989     0.496290     0.727609    Uiso  ? O
   O139       1.0     0.104829     0.532115     0.677639    Uiso  ? O
   O140       1.0     0.895479     0.543537     0.723735    Uiso  ? O
   O141       1.0     0.110528     0.396150     0.648719    Uiso  ? O
   O142       1.0     0.125182     0.363404     0.682046    Uiso  ? O
   O143       1.0     0.891689     0.357082     0.613479    Uiso  ? O
   O144       1.0     0.105539     0.326622     0.649951    Uiso  ? O
   O145       1.0     0.144146     0.355247     0.592176    Uiso  ? O
   O146       1.0     0.156615     0.321078     0.623482    Uiso  ? O
   O147       1.0     0.165482     0.391217     0.627622    Uiso  ? O
   O148       1.0     0.174707     0.360144     0.664022    Uiso  ? O
   O149       1.0     0.869211     0.663336     0.552105    Uiso  ? O
   O150       1.0     0.855015     0.706533     0.561795    Uiso  ? O
   O151       1.0     0.825251     0.653513     0.520316    Uiso  ? O
   O152       1.0     0.809912     0.696655     0.535095    Uiso  ? O
   O153       1.0     0.797205     0.634772     0.565315    Uiso  ? O
   O154       1.0     0.781717     0.677912     0.577779    Uiso  ? O
   O155       1.0     0.842690     0.636889     0.592925    Uiso  ? O
   O156       1.0     0.827323     0.680455     0.606152    Uiso  ? O
   O157       1.0     0.813725     0.393700     0.521156    Uiso  ? O
   O158       1.0     0.777588     0.503290     0.563016    Uiso  ? O
   O159       1.0     0.796834     0.476472     0.438550    Uiso  ? O
   O160       1.0     0.865577     0.520180     0.633895    Uiso  ? O
   O161       1.0     0.116883     0.407493     0.591158    Uiso  ? O
   O162       1.0     0.847260     0.606363     0.547452    Uiso  ? O
   Zn25       1.0     0.794579     0.359830     0.520935    Uiso  ? Zn
   Zn26       1.0     0.763065     0.312087     0.523338    Uiso  ? Zn
   Zn27       1.0     0.739998     0.509162     0.574108    Uiso  ? Zn
   Zn28       1.0     0.686185     0.513262     0.592929    Uiso  ? Zn
   Zn29       1.0     0.766490     0.477799     0.411339    Uiso  ? Zn
   Zn30       1.0     0.723092     0.472005     0.375787    Uiso  ? Zn
   Zn31       1.0     0.862014     0.527505     0.671186    Uiso  ? Zn
   Zn32       1.0     0.858006     0.536405     0.727887    Uiso  ? Zn
   Zn33       1.0     0.128300     0.379954     0.617128    Uiso  ? Zn
   Zn34       1.0     0.142074     0.339183     0.657210    Uiso  ? Zn
   Zn35       1.0     0.835352     0.642893     0.556620    Uiso  ? Zn
   Zn36       1.0     0.817559     0.695955     0.571533    Uiso  ? Zn
   C289       1.0     0.253990     0.626398     0.462692    Uiso  ? C
   C290       1.0     0.276807     0.611131     0.448235    Uiso  ? C
   C291       1.0     0.301108     0.625568     0.439610    Uiso  ? C
   H169       1.0     0.301409     0.648559     0.438458    Uiso  ? H
   C292       1.0     0.322326     0.610072     0.427286    Uiso  ? C
   H170       1.0     0.340685     0.619338     0.418367    Uiso  ? H
   C293       1.0     0.320759     0.580213     0.423236    Uiso  ? C
   H171       1.0     0.339612     0.568061     0.415234    Uiso  ? H
   C294       1.0     0.295834     0.565872     0.432469    Uiso  ? C
   C295       1.0     0.274447     0.581084     0.445234    Uiso  ? C
   H172       1.0     0.255617     0.570920     0.454620    Uiso  ? H
   C296       1.0     0.292350     0.534174     0.430213    Uiso  ? C
   C297       1.0     0.243122     0.639156     0.531812    Uiso  ? C
   C298       1.0     0.255610     0.629946     0.557971    Uiso  ? C
   C299       1.0     0.275903     0.646860     0.572184    Uiso  ? C
   H173       1.0     0.280650     0.667270     0.564291    Uiso  ? H
   C300       1.0     0.288575     0.636918     0.596502    Uiso  ? C
   H174       1.0     0.302928     0.652499     0.605496    Uiso  ? H
   C301       1.0     0.283790     0.609773     0.605513    Uiso  ? C
   H175       1.0     0.298767     0.602582     0.622102    Uiso  ? H
   C302       1.0     0.264530     0.592699     0.592687    Uiso  ? C
   C303       1.0     0.249236     0.602853     0.569313    Uiso  ? C
   H176       1.0     0.234804     0.588000     0.558031    Uiso  ? H
   C304       1.0     0.260244     0.563635     0.603821    Uiso  ? C
   C305       1.0     0.179010     0.680453     0.512219    Uiso  ? C
   C306       1.0     0.154904     0.697391     0.524165    Uiso  ? C
   C307       1.0     0.158115     0.726960     0.529166    Uiso  ? C
   H177       1.0     0.178147     0.737016     0.522653    Uiso  ? H
   C308       1.0     0.138418     0.742496     0.543347    Uiso  ? C
   H178       1.0     0.144614     0.763894     0.549855    Uiso  ? H
   C309       1.0     0.112141     0.731536     0.548682    Uiso  ? C
   H179       1.0     0.891634     0.745781     0.558425    Uiso  ? H
   C310       1.0     0.108725     0.702135     0.547232    Uiso  ? C
   C311       1.0     0.129816     0.684675     0.534904    Uiso  ? C
   H180       1.0     0.124769     0.662893     0.531356    Uiso  ? H
   C312       1.0     0.875200     0.689938     0.554640    Uiso  ? C
   C313       1.0     0.195970     0.664814     0.442734    Uiso  ? C
   C314       1.0     0.181326     0.673573     0.417048    Uiso  ? C
   C315       1.0     0.190975     0.696648     0.399571    Uiso  ? C
   H181       1.0     0.211436     0.705625     0.403715    Uiso  ? H
   C316       1.0     0.173431     0.708259     0.379496    Uiso  ? C
   H182       1.0     0.180664     0.727405     0.368371    Uiso  ? H
   C317       1.0     0.146960     0.696600     0.372740    Uiso  ? C
   H183       1.0     0.132043     0.705532     0.359810    Uiso  ? H
   C318       1.0     0.138432     0.671323     0.387205    Uiso  ? C
   C319       1.0     0.155958     0.660272     0.409472    Uiso  ? C
   H184       1.0     0.147161     0.642977     0.421879    Uiso  ? H
   C320       1.0     0.109789     0.658092     0.383014    Uiso  ? C
   C321       1.0     0.276508     0.428115     0.427715    Uiso  ? C
   C322       1.0     0.270349     0.397229     0.425206    Uiso  ? C
   C323       1.0     0.293722     0.378719     0.423170    Uiso  ? C
   H185       1.0     0.314674     0.386163     0.418348    Uiso  ? H
   C324       1.0     0.290882     0.350039     0.426828    Uiso  ? C
   H186       1.0     0.310543     0.334992     0.427543    Uiso  ? H
   C325       1.0     0.263720     0.339433     0.432495    Uiso  ? C
   H187       1.0     0.260639     0.316466     0.434435    Uiso  ? H
   C326       1.0     0.240108     0.357538     0.433171    Uiso  ? C
   C327       1.0     0.244315     0.386727     0.431415    Uiso  ? C
   H188       1.0     0.227549     0.402921     0.433746    Uiso  ? H
   C328       1.0     0.212528     0.346750     0.441559    Uiso  ? C
   C329       1.0     0.299897     0.474694     0.480270    Uiso  ? C
   C330       1.0     0.310927     0.475059     0.509657    Uiso  ? C
   C331       1.0     0.337763     0.466014     0.517381    Uiso  ? C
   H189       1.0     0.353119     0.457101     0.503064    Uiso  ? H
   C332       1.0     0.347403     0.467830     0.545334    Uiso  ? C
   H190       1.0     0.369813     0.462700     0.551289    Uiso  ? H
   C333       1.0     0.328894     0.479784     0.565389    Uiso  ? C
   H191       1.0     0.337654     0.481983     0.585960    Uiso  ? H
   C334       1.0     0.299768     0.486254     0.559046    Uiso  ? C
   C335       1.0     0.291987     0.484655     0.530495    Uiso  ? C
   H192       1.0     0.269872     0.491843     0.526370    Uiso  ? H
   C336       1.0     0.280255     0.496241     0.582639    Uiso  ? C
   C337       1.0     0.265781     0.485898     0.380033    Uiso  ? C
   C338       1.0     0.254932     0.489158     0.350606    Uiso  ? C
   C339       1.0     0.272065     0.497895     0.328665    Uiso  ? C
   H193       1.0     0.294523     0.503284     0.332066    Uiso  ? H
   C340       1.0     0.259659     0.500735     0.300907    Uiso  ? C
   H194       1.0     0.272892     0.505672     0.284096    Uiso  ? H
   C341       1.0     0.230550     0.493087     0.295719    Uiso  ? C
   H195       1.0     0.220421     0.494169     0.275223    Uiso  ? H
   C342       1.0     0.214030     0.485317     0.320178    Uiso  ? C
   C343       1.0     0.226109     0.482993     0.347062    Uiso  ? C
   H196       1.0     0.214318     0.474236     0.363930    Uiso  ? H
   C344       1.0     0.183570     0.477443     0.317728    Uiso  ? C
   C345       1.0     0.241658     0.467376     0.639148    Uiso  ? C
   C346       1.0     0.236242     0.439259     0.651467    Uiso  ? C
   C347       1.0     0.256274     0.428228     0.671181    Uiso  ? C
   H197       1.0     0.273919     0.440619     0.678971    Uiso  ? H
   C348       1.0     0.252976     0.401063     0.681352    Uiso  ? C
   H198       1.0     0.267821     0.395590     0.697926    Uiso  ? H
   C349       1.0     0.227810     0.385767     0.675622    Uiso  ? C
   H199       1.0     0.226673     0.364282     0.686866    Uiso  ? H
   C350       1.0     0.208299     0.396845     0.656245    Uiso  ? C
   C351       1.0     0.212702     0.423055     0.644685    Uiso  ? C
   H200       1.0     0.195825     0.432541     0.631914    Uiso  ? H
   C352       1.0     0.181979     0.382505     0.649052    Uiso  ? C
   C353       1.0     0.213069     0.531759     0.656928    Uiso  ? C
   C354       1.0     0.194182     0.540697     0.680638    Uiso  ? C
   C355       1.0     0.206785     0.546975     0.707401    Uiso  ? C
   H201       1.0     0.230257     0.546790     0.710158    Uiso  ? H
   C356       1.0     0.190451     0.554402     0.729609    Uiso  ? C
   H202       1.0     0.199405     0.555267     0.751860    Uiso  ? H
   C357       1.0     0.160482     0.552457     0.727138    Uiso  ? C
   H203       1.0     0.148438     0.554257     0.747648    Uiso  ? H
   C358       1.0     0.147382     0.543887     0.701361    Uiso  ? C
   C359       1.0     0.164736     0.539953     0.677280    Uiso  ? C
   H204       1.0     0.155470     0.534700     0.656830    Uiso  ? H
   C360       1.0     0.116996     0.538257     0.701041    Uiso  ? C
   C361       1.0     0.141240     0.412848     0.323312    Uiso  ? C
   C362       1.0     0.145352     0.382793     0.330476    Uiso  ? C
   C363       1.0     0.145651     0.362787     0.308792    Uiso  ? C
   H205       1.0     0.141864     0.367694     0.286988    Uiso  ? H
   C364       1.0     0.147713     0.334329     0.316076    Uiso  ? C
   H206       1.0     0.144534     0.317251     0.301439    Uiso  ? H
   C365       1.0     0.150279     0.325269     0.345236    Uiso  ? C
   H207       1.0     0.149755     0.302145     0.348977    Uiso  ? H
   C366       1.0     0.152255     0.345931     0.366367    Uiso  ? C
   C367       1.0     0.149806     0.374747     0.359010    Uiso  ? C
   H208       1.0     0.149537     0.390943     0.375352    Uiso  ? H
   C368       1.0     0.155909     0.338680     0.397348    Uiso  ? C
   C369       1.0     0.123066     0.514744     0.304847    Uiso  ? C
   C370       1.0     0.118262     0.546466     0.297473    Uiso  ? C
   C371       1.0     0.129303     0.558946     0.272143    Uiso  ? C
   H209       1.0     0.140439     0.545789     0.257040    Uiso  ? H
   C372       1.0     0.125617     0.588500     0.266986    Uiso  ? C
   H210       1.0     0.135504     0.599127     0.250084    Uiso  ? H
   C373       1.0     0.107905     0.604109     0.285856    Uiso  ? C
   H211       1.0     0.106818     0.626970     0.284448    Uiso  ? H
   C374       1.0     0.891960     0.591213     0.310473    Uiso  ? C
   C375       1.0     0.895720     0.562093     0.314746    Uiso  ? C
   H212       1.0     0.882426     0.549462     0.329840    Uiso  ? H
   C376       1.0     0.879987     0.608066     0.333998    Uiso  ? C
   C377       1.0     0.837615     0.664568     0.412174    Uiso  ? C
   C378       1.0     0.823826     0.681218     0.435894    Uiso  ? C
   C379       1.0     0.805283     0.704018     0.429127    Uiso  ? C
   H213       1.0     0.803300     0.710274     0.408153    Uiso  ? H
   C380       1.0     0.786569     0.715239     0.450279    Uiso  ? C
   H214       1.0     0.771977     0.732259     0.445735    Uiso  ? H
   C381       1.0     0.789627     0.705352     0.477634    Uiso  ? C
   H215       1.0     0.774172     0.714322     0.493154    Uiso  ? H
   C382       1.0     0.810147     0.686369     0.485203    Uiso  ? C
   C383       1.0     0.826460     0.672763     0.463703    Uiso  ? C
   H216       1.0     0.838368     0.653019     0.468439    Uiso  ? H
   C384       1.0     0.815897     0.678516     0.514424    Uiso  ? C
   O163       1.0     0.230586     0.612772     0.471090    Uiso  ? O
   O164       1.0     0.258465     0.653502     0.468269    Uiso  ? O
   O165       1.0     0.221043     0.625174     0.522263    Uiso  ? O
   O166       1.0     0.248525     0.664008     0.520575    Uiso  ? O
   O167       1.0     0.175929     0.652383     0.509311    Uiso  ? O
   O168       1.0     0.202834     0.692494     0.505407    Uiso  ? O
   O169       1.0     0.187665     0.641612     0.455316    Uiso  ? O
   O170       1.0     0.216195     0.680934     0.454292    Uiso  ? O
   O171       1.0     0.256486     0.444862     0.436041    Uiso  ? O
   O172       1.0     0.300137     0.438636     0.417894    Uiso  ? O
   O173       1.0     0.273017     0.478635     0.475717    Uiso  ? O
   O174       1.0     0.318127     0.473172     0.459260    Uiso  ? O
   O175       1.0     0.269630     0.521823     0.440331    Uiso  ? O
   O176       1.0     0.313527     0.517304     0.423444    Uiso  ? O
   O177       1.0     0.248317     0.485101     0.401689    Uiso  ? O
   O178       1.0     0.293586     0.483966     0.384900    Uiso  ? O
   O179       1.0     0.227912     0.474726     0.615767    Uiso  ? O
   O180       1.0     0.261576     0.483803     0.649860    Uiso  ? O
   O181       1.0     0.203515     0.519817     0.633842    Uiso  ? O
   O182       1.0     0.239885     0.536723     0.659299    Uiso  ? O
   O183       1.0     0.239334     0.548230     0.594136    Uiso  ? O
   O184       1.0     0.277407     0.553500     0.623955    Uiso  ? O
   O185       1.0     0.252828     0.498430     0.577942    Uiso  ? O
   O186       1.0     0.288861     0.503551     0.608885    Uiso  ? O
   O187       1.0     0.137803     0.431506     0.342937    Uiso  ? O
   O188       1.0     0.140873     0.421744     0.296769    Uiso  ? O
   O189       1.0     0.167077     0.480138     0.340265    Uiso  ? O
   O190       1.0     0.174296     0.468364     0.292763    Uiso  ? O
   O191       1.0     0.123282     0.506319     0.331216    Uiso  ? O
   O192       1.0     0.127195     0.497507     0.284787    Uiso  ? O
   O193       1.0     0.886869     0.465936     0.336974    Uiso  ? O
   O194       1.0     0.892348     0.453311     0.291198    Uiso  ? O
   O195       1.0     0.879039     0.597914     0.360062    Uiso  ? O
   O196       1.0     0.870895     0.634064     0.329507    Uiso  ? O
   O197       1.0     0.103983     0.634492     0.395830    Uiso  ? O
   O198       1.0     0.886955     0.669007     0.364556    Uiso  ? O
   O199       1.0     0.849542     0.639758     0.417484    Uiso  ? O
   O200       1.0     0.836404     0.675096     0.385457    Uiso  ? O
   O201       1.0     0.831299     0.599829     0.383050    Uiso  ? O
   O202       1.0     0.819708     0.633097     0.348678    Uiso  ? O
   O203       1.0     0.121908     0.336731     0.457653    Uiso  ? O
   O204       1.0     0.136138     0.291325     0.443605    Uiso  ? O
   O205       1.0     0.165168     0.336106     0.489014    Uiso  ? O
   O206       1.0     0.177080     0.291863     0.476239    Uiso  ? O
   O207       1.0     0.192975     0.362490     0.452230    Uiso  ? O
   O208       1.0     0.206087     0.320516     0.436495    Uiso  ? O
   O209       1.0     0.154117     0.358541     0.417294    Uiso  ? O
   O210       1.0     0.161343     0.312411     0.403414    Uiso  ? O
   O211       1.0     0.180357     0.596742     0.489129    Uiso  ? O
   O212       1.0     0.223210     0.489103     0.452850    Uiso  ? O
   O213       1.0     0.195480     0.510085     0.578638    Uiso  ? O
   O214       1.0     0.125148     0.474164     0.382240    Uiso  ? O
   O215       1.0     0.871684     0.586549     0.419917    Uiso  ? O
   O216       1.0     0.148082     0.387650     0.468647    Uiso  ? O
   Zn37       1.0     0.200690     0.629288     0.489877    Uiso  ? Zn
   Zn38       1.0     0.233343     0.675946     0.487322    Uiso  ? Zn
   Zn39       1.0     0.259612     0.483048     0.439837    Uiso  ? Zn
   Zn40       1.0     0.311122     0.477825     0.420129    Uiso  ? Zn
   Zn41       1.0     0.226374     0.511907     0.603340    Uiso  ? Zn
   Zn42       1.0     0.269001     0.519766     0.638626    Uiso  ? Zn
   Zn43       1.0     0.130145     0.470012     0.343703    Uiso  ? Zn
   Zn44       1.0     0.134961     0.459894     0.287877    Uiso  ? Zn
   Zn45       1.0     0.864527     0.614776     0.393467    Uiso  ? Zn
   Zn46       1.0     0.851677     0.656410     0.353876    Uiso  ? Zn
   Zn47       1.0     0.156700     0.352346     0.455855    Uiso  ? Zn
   Zn48       1.0     0.172169     0.299965     0.437947    Uiso  ? Zn
   H217       1.0     0.211756     0.485311     0.435067    Uiso  ? H
   H218       1.0     0.218246     0.471940     0.464609    Uiso  ? H
   H219       1.0     0.786135     0.522251     0.564514    Uiso  ? H
   H220       1.0     0.787558     0.490046     0.574710    Uiso  ? H
   H221       1.0     0.842138     0.606503     0.526636    Uiso  ? H
   H222       1.0     0.833221     0.593787     0.557036    Uiso  ? H
   H223       1.0     0.846991     0.523136     0.625418    Uiso  ? H
   H224       1.0     0.878509     0.535254     0.628262    Uiso  ? H
   H225       1.0     0.127823     0.391338     0.465665    Uiso  ? H
   H226       1.0     0.156940     0.403801     0.457106    Uiso  ? H
   H227       1.0     0.820543     0.398145     0.500491    Uiso  ? H
   H228       1.0     0.831522     0.391861     0.530881    Uiso  ? H
   H229       1.0     0.892062     0.411336     0.592944    Uiso  ? H
   H230       1.0     0.119785     0.399956     0.570852    Uiso  ? H
   H231       1.0     0.140345     0.488140     0.387124    Uiso  ? H
   H232       1.0     0.109145     0.487359     0.383413    Uiso  ? H
   H233       1.0     0.790694     0.470239     0.457600    Uiso  ? H
   H234       1.0     0.807335     0.459065     0.431698    Uiso  ? H
   H235       1.0     0.875156     0.568784     0.410204    Uiso  ? H
   H236       1.0     0.888222     0.591811     0.432179    Uiso  ? H
   H237       1.0     0.197986     0.490468     0.569275    Uiso  ? H
   H238       1.0     0.200285     0.522591     0.562838    Uiso  ? H
   H239       1.0     0.161241     0.603146     0.496513    Uiso  ? H
   H240       1.0     0.190664     0.587340     0.505369    Uiso  ? H
   C385       1.0     0.666007     0.896290     0.377842    Uiso  ? C
   C386       1.0     0.688811     0.884340     0.396945    Uiso  ? C
   C387       1.0     0.717001     0.882552     0.386931    Uiso  ? C
   H241       1.0     0.722929     0.891343     0.366823    Uiso  ? H
   C388       1.0     0.738722     0.868284     0.402731    Uiso  ? C
   H242       1.0     0.759560     0.864658     0.392519    Uiso  ? H
   C389       1.0     0.730947     0.858005     0.429617    Uiso  ? C
   H243       1.0     0.743865     0.843304     0.439364    Uiso  ? H
   C390       1.0     0.703293     0.861727     0.440407    Uiso  ? C
   C391       1.0     0.683280     0.874928     0.424281    Uiso  ? C
   H244       1.0     0.662448     0.876390     0.431180    Uiso  ? H
   C392       1.0     0.694367     0.847834     0.467811    Uiso  ? C
   C393       1.0     0.618129     0.870316     0.326154    Uiso  ? C
   C394       1.0     0.609693     0.841996     0.314691    Uiso  ? C
   C395       1.0     0.620034     0.831416     0.289012    Uiso  ? C
   H245       1.0     0.632985     0.844059     0.274979    Uiso  ? H
   C396       1.0     0.614056     0.803499     0.280985    Uiso  ? C
   H246       1.0     0.626241     0.791883     0.265130    Uiso  ? H
   C397       1.0     0.597134     0.786416     0.298396    Uiso  ? C
   H247       1.0     0.592921     0.765088     0.292422    Uiso  ? H
   C398       1.0     0.586461     0.797843     0.323802    Uiso  ? C
   C399       1.0     0.594110     0.824519     0.331982    Uiso  ? C
   H248       1.0     0.587494     0.831980     0.353280    Uiso  ? H
   C400       1.0     0.570235     0.780281     0.343768    Uiso  ? C
   C401       1.0     0.589063     0.144853     0.322307    Uiso  ? C
   C402       1.0     0.566342     0.159486     0.305984    Uiso  ? C
   C403       1.0     0.567924     0.162720     0.276644    Uiso  ? C
   H249       1.0     0.586482     0.156466     0.264460    Uiso  ? H
   C404       1.0     0.546184     0.176206     0.261502    Uiso  ? C
   H250       1.0     0.549766     0.180454     0.238441    Uiso  ? H
   C405       1.0     0.521419     0.184538     0.275165    Uiso  ? C
   H251       1.0     0.506400     0.196094     0.263849    Uiso  ? H
   C406       1.0     0.518859     0.179659     0.304143    Uiso  ? C
   C407       1.0     0.541873     0.168866     0.319128    Uiso  ? C
   H252       1.0     0.540938     0.165189     0.341506    Uiso  ? H
   C408       1.0     0.493832     0.189469     0.319518    Uiso  ? C
   C409       1.0     0.643336     0.173358     0.359557    Uiso  ? C
   C410       1.0     0.647546     0.203305     0.366642    Uiso  ? C
   C411       1.0     0.660351     0.222624     0.346390    Uiso  ? C
   H253       1.0     0.671374     0.213543     0.326962    Uiso  ? H
   C412       1.0     0.661091     0.251271     0.352989    Uiso  ? C
   H254       1.0     0.673938     0.265861     0.339101    Uiso  ? H
   C413       1.0     0.647962     0.262419     0.377825    Uiso  ? C
   H255       1.0     0.648967     0.286876     0.381220    Uiso  ? H
   C414       1.0     0.635008     0.242510     0.397473    Uiso  ? C
   C415       1.0     0.635021     0.214396     0.392117    Uiso  ? C
   H256       1.0     0.622693     0.200397     0.405600    Uiso  ? H
   C416       1.0     0.618802     0.254113     0.421028    Uiso  ? C
   C417       1.0     0.661706     0.783288     0.541527    Uiso  ? C
   C418       1.0     0.650051     0.766140     0.564335    Uiso  ? C
   C419       1.0     0.659831     0.738844     0.569406    Uiso  ? C
   H257       1.0     0.677406     0.728410     0.557187    Uiso  ? H
   C420       1.0     0.649393     0.723132     0.592581    Uiso  ? C
   H258       1.0     0.657199     0.700035     0.594719    Uiso  ? H
   C421       1.0     0.631117     0.735729     0.612162    Uiso  ? C
   H259       1.0     0.624973     0.723221     0.631624    Uiso  ? H
   C422       1.0     0.620038     0.763110     0.607545    Uiso  ? C
   C423       1.0     0.631153     0.778987     0.583914    Uiso  ? C
   H260       1.0     0.620723     0.799113     0.578517    Uiso  ? H
   C424       1.0     0.596729     0.775162     0.624125    Uiso  ? C
   C425       1.0     0.670831     0.778610     0.467801    Uiso  ? C
   C426       1.0     0.660633     0.759275     0.445796    Uiso  ? C
   C427       1.0     0.677864     0.735712     0.436938    Uiso  ? C
   H261       1.0     0.699942     0.733935     0.444746    Uiso  ? H
   C428       1.0     0.668653     0.716912     0.416301    Uiso  ? C
   H262       1.0     0.681812     0.700710     0.409954    Uiso  ? H
   C429       1.0     0.640577     0.718502     0.406720    Uiso  ? C
   H263       1.0     0.632826     0.701325     0.393336    Uiso  ? H
   C430       1.0     0.622678     0.740503     0.415404    Uiso  ? C
   C431       1.0     0.632253     0.760552     0.435905    Uiso  ? C
   H264       1.0     0.616734     0.776917     0.442267    Uiso  ? H
   C432       1.0     0.594199     0.743836     0.402703    Uiso  ? C
   C433       1.0     0.697603     0.852082     0.540995    Uiso  ? C
   C434       1.0     0.704693     0.875963     0.559504    Uiso  ? C
   C435       1.0     0.733113     0.879068     0.566967    Uiso  ? C
   H265       1.0     0.748575     0.864526     0.559006    Uiso  ? H
   C436       1.0     0.741646     0.102945     0.588263    Uiso  ? C
   H266       1.0     0.764022     0.104266     0.596087    Uiso  ? H
   C437       1.0     0.721716     0.121869     0.599482    Uiso  ? C
   H267       1.0     0.727599     0.137881     0.615141    Uiso  ? H
   C438       1.0     0.692448     0.120064     0.590051    Uiso  ? C
   C439       1.0     0.683598     0.893580     0.569733    Uiso  ? C
   H268       1.0     0.662397     0.891109     0.561521    Uiso  ? H
   C440       1.0     0.669553     0.139422     0.600506    Uiso  ? C
   C441       1.0     0.518878     0.723573     0.412535    Uiso  ? C
   C442       1.0     0.505327     0.706552     0.434204    Uiso  ? C
   C443       1.0     0.509127     0.677297     0.434270    Uiso  ? C
   H269       1.0     0.522905     0.666146     0.420048    Uiso  ? H
   C444       1.0     0.494863     0.659623     0.452389    Uiso  ? C
   H270       1.0     0.498419     0.636592     0.451713    Uiso  ? H
   C445       1.0     0.475115     0.670176     0.470303    Uiso  ? C
   H271       1.0     0.464357     0.656745     0.485131    Uiso  ? H
   C446       1.0     0.470165     0.698788     0.470801    Uiso  ? C
   C447       1.0     0.485655     0.717527     0.453104    Uiso  ? C
   H272       1.0     0.477015     0.738384     0.449414    Uiso  ? H
   C448       1.0     0.449168     0.710620     0.489595    Uiso  ? C
   C449       1.0     0.503200     0.763890     0.351861    Uiso  ? C
   C450       1.0     0.477170     0.770201     0.335222    Uiso  ? C
   C451       1.0     0.474964     0.763175     0.306062    Uiso  ? C
   H273       1.0     0.493421     0.753566     0.296139    Uiso  ? H
   C452       1.0     0.448424     0.768036     0.291586    Uiso  ? C
   H274       1.0     0.445041     0.760478     0.268956    Uiso  ? H
   C453       1.0     0.425072     0.778417     0.307559    Uiso  ? C
   H275       1.0     0.404661     0.779626     0.297200    Uiso  ? H
   C454       1.0     0.428421     0.786768     0.336651    Uiso  ? C
   C455       1.0     0.454773     0.783078     0.350203    Uiso  ? C
   H276       1.0     0.456376     0.787805     0.372163    Uiso  ? H
   C456       1.0     0.403853     0.800962     0.351361    Uiso  ? C
   C457       1.0     0.624795     0.129194     0.658050    Uiso  ? C
   C458       1.0     0.622263     0.103749     0.676810    Uiso  ? C
   C459       1.0     0.637485     0.894992     0.701673    Uiso  ? C
   H277       1.0     0.655672     0.113865     0.709057    Uiso  ? H
   C460       1.0     0.639265     0.868197     0.713574    Uiso  ? C
   H278       1.0     0.654932     0.863977     0.730423    Uiso  ? H
   C461       1.0     0.622169     0.844876     0.705323    Uiso  ? C
   H279       1.0     0.622292     0.824424     0.714162    Uiso  ? H
   C462       1.0     0.602941     0.850095     0.683501    Uiso  ? C
   C463       1.0     0.603075     0.876129     0.669415    Uiso  ? C
   H280       1.0     0.588622     0.879986     0.653130    Uiso  ? H
   C464       1.0     0.581925     0.828665     0.673989    Uiso  ? C
   C465       1.0     0.646937     0.209518     0.591811    Uiso  ? C
   C466       1.0     0.653170     0.232613     0.570880    Uiso  ? C
   C467       1.0     0.670619     0.255432     0.578618    Uiso  ? C
   H281       1.0     0.681507     0.257555     0.598712    Uiso  ? H
   C468       1.0     0.674619     0.278613     0.560544    Uiso  ? C
   H282       1.0     0.688764     0.296209     0.566910    Uiso  ? H
   C469       1.0     0.660601     0.279252     0.533526    Uiso  ? C
   H283       1.0     0.662151     0.298512     0.520628    Uiso  ? H
   C470       1.0     0.644543     0.255334     0.524981    Uiso  ? C
   C471       1.0     0.641655     0.231837     0.542959    Uiso  ? C
   H284       1.0     0.628629     0.214903     0.537655    Uiso  ? H
   C472       1.0     0.627391     0.258148     0.498735    Uiso  ? C
   C473       1.0     0.551936     0.280463     0.427361    Uiso  ? C
   C474       1.0     0.528279     0.286307     0.407697    Uiso  ? C
   C475       1.0     0.517888     0.314464     0.406115    Uiso  ? C
   H285       1.0     0.527673     0.331398     0.418615    Uiso  ? H
   C476       1.0     0.493868     0.320152     0.390352    Uiso  ? C
   H286       1.0     0.487190     0.342971     0.392174    Uiso  ? H
   C477       1.0     0.481536     0.298423     0.375083    Uiso  ? C
   H287       1.0     0.461549     0.303831     0.363905    Uiso  ? H
   C478       1.0     0.490611     0.269284     0.378408    Uiso  ? C
   C479       1.0     0.515232     0.264080     0.394029    Uiso  ? C
   H288       1.0     0.519915     0.241516     0.395586    Uiso  ? H
   C480       1.0     0.475721     0.245513     0.365974    Uiso  ? C
   O217       1.0     0.641364     0.103384     0.387665    Uiso  ? O
   O218       1.0     0.674388     0.111443     0.351954    Uiso  ? O
   O219       1.0     0.605624     0.879552     0.350589    Uiso  ? O
   O220       1.0     0.635570     0.886658     0.312367    Uiso  ? O
   O221       1.0     0.583180     0.133790     0.346988    Uiso  ? O
   O222       1.0     0.613867     0.141781     0.310815    Uiso  ? O
   O223       1.0     0.626298     0.156840     0.374366    Uiso  ? O
   O224       1.0     0.655955     0.162714     0.336783    Uiso  ? O
   O225       1.0     0.645092     0.800472     0.529136    Uiso  ? O
   O226       1.0     0.689417     0.783250     0.536380    Uiso  ? O
   O227       1.0     0.653919     0.798021     0.477471    Uiso  ? O
   O228       1.0     0.696458     0.776440     0.480440    Uiso  ? O
   O229       1.0     0.668282     0.849041     0.476574    Uiso  ? O
   O230       1.0     0.712768     0.830449     0.479853    Uiso  ? O
   O231       1.0     0.672030     0.851026     0.531106    Uiso  ? O
   O232       1.0     0.715801     0.833118     0.534800    Uiso  ? O
   O233       1.0     0.521198     0.749794     0.418225    Uiso  ? O
   O234       1.0     0.531833     0.712535     0.391856    Uiso  ? O
   O235       1.0     0.509341     0.778915     0.374296    Uiso  ? O
   O236       1.0     0.517616     0.741116     0.344929    Uiso  ? O
   O237       1.0     0.558442     0.791497     0.365913    Uiso  ? O
   O238       1.0     0.570774     0.752529     0.340729    Uiso  ? O
   O239       1.0     0.577437     0.764717     0.410855    Uiso  ? O
   O240       1.0     0.584209     0.726582     0.382673    Uiso  ? O
   O241       1.0     0.610580     0.130263     0.633606    Uiso  ? O
   O242       1.0     0.642454     0.150321     0.665557    Uiso  ? O
   O243       1.0     0.643673     0.138722     0.588569    Uiso  ? O
   O244       1.0     0.674744     0.154957     0.622468    Uiso  ? O
   O245       1.0     0.628947     0.189798     0.584582    Uiso  ? O
   O246       1.0     0.660813     0.208405     0.616278    Uiso  ? O
   O247       1.0     0.588425     0.180225     0.622432    Uiso  ? O
   O248       1.0     0.618588     0.197946     0.655210    Uiso  ? O
   O249       1.0     0.607509     0.239556     0.494865    Uiso  ? O
   O250       1.0     0.626549     0.282390     0.485477    Uiso  ? O
   O251       1.0     0.607901     0.237268     0.439444    Uiso  ? O
   O252       1.0     0.615131     0.281750     0.424148    Uiso  ? O
   O253       1.0     0.556209     0.253591     0.436531    Uiso  ? O
   O254       1.0     0.568204     0.301585     0.436554    Uiso  ? O
   O255       1.0     0.557965     0.268811     0.490414    Uiso  ? O
   O256       1.0     0.578377     0.311783     0.484773    Uiso  ? O
   O257       1.0     0.514734     0.819796     0.649334    Uiso  ? O
   O258       1.0     0.527986     0.788433     0.684215    Uiso  ? O
   O259       1.0     0.525569     0.778841     0.614925    Uiso  ? O
   O260       1.0     0.545593     0.747272     0.645317    Uiso  ? O
   O261       1.0     0.579463     0.793537     0.612315    Uiso  ? O
   O262       1.0     0.591837     0.767071     0.649781    Uiso  ? O
   O263       1.0     0.567866     0.833577     0.650286    Uiso  ? O
   O264       1.0     0.582415     0.802674     0.683706    Uiso  ? O
   O265       1.0     0.588423     0.115338     0.400739    Uiso  ? O
   O266       1.0     0.621858     0.839992     0.503666    Uiso  ? O
   O267       1.0     0.538878     0.806646     0.418469    Uiso  ? O
   O268       1.0     0.588321     0.144550     0.580799    Uiso  ? O
   O269       1.0     0.565667     0.211448     0.473081    Uiso  ? O
   O270       1.0     0.536232     0.833731     0.598835    Uiso  ? O
   Zn49       1.0     0.611085     0.119488     0.369628    Uiso  ? Zn
   Zn50       1.0     0.647722     0.127052     0.325562    Uiso  ? Zn
   Zn51       1.0     0.656657     0.825475     0.505057    Uiso  ? Zn
   Zn52       1.0     0.707361     0.803238     0.508531    Uiso  ? Zn
   Zn53       1.0     0.541835     0.775598     0.396553    Uiso  ? Zn
   Zn54       1.0     0.549876     0.729746     0.363519    Uiso  ? Zn
   Zn55       1.0     0.614280     0.157917     0.604792    Uiso  ? Zn
   Zn56       1.0     0.651946     0.178789     0.642397    Uiso  ? Zn
   Zn57       1.0     0.580360     0.244582     0.466988    Uiso  ? Zn
   Zn58       1.0     0.602663     0.296504     0.457672    Uiso  ? Zn
   Zn59       1.0     0.544918     0.809019     0.627643    Uiso  ? Zn
   Zn60       1.0     0.560758     0.773302     0.669635    Uiso  ? Zn
   C481       1.0     0.340047     0.104969     0.620254    Uiso  ? C
   C482       1.0     0.316093     0.114695     0.602780    Uiso  ? C
   C483       1.0     0.287470     0.111917     0.611750    Uiso  ? C
   H289       1.0     0.282467     0.102465     0.631458    Uiso  ? H
   C484       1.0     0.265060     0.124728     0.596768    Uiso  ? C
   H290       1.0     0.242305     0.121027     0.602400    Uiso  ? H
   C485       1.0     0.271713     0.141138     0.572462    Uiso  ? C
   H291       1.0     0.255477     0.156751     0.562276    Uiso  ? H
   C486       1.0     0.299282     0.144504     0.563360    Uiso  ? C
   C487       1.0     0.321484     0.131567     0.578207    Uiso  ? C
   H292       1.0     0.341448     0.132505     0.570235    Uiso  ? H
   C488       1.0     0.307086     0.160714     0.537154    Uiso  ? C
   C489       1.0     0.390581     0.133590     0.666821    Uiso  ? C
   C490       1.0     0.396292     0.164515     0.674167    Uiso  ? C
   C491       1.0     0.385585     0.176265     0.699845    Uiso  ? C
   H293       1.0     0.374057     0.163145     0.715538    Uiso  ? H
   C492       1.0     0.388371     0.205173     0.705113    Uiso  ? C
   H294       1.0     0.377119     0.214633     0.722573    Uiso  ? H
   C493       1.0     0.402570     0.222605     0.684877    Uiso  ? C
   H295       1.0     0.406230     0.244436     0.689886    Uiso  ? H
   C494       1.0     0.415298     0.210772     0.660325    Uiso  ? C
   C495       1.0     0.409038     0.182598     0.654129    Uiso  ? C
   H296       1.0     0.417813     0.174423     0.633040    Uiso  ? H
   C496       1.0     0.432147     0.228702     0.640700    Uiso  ? C
   C497       1.0     0.415947     0.855808     0.678199    Uiso  ? C
   C498       1.0     0.440348     0.843130     0.692936    Uiso  ? C
   C499       1.0     0.440954     0.839718     0.722596    Uiso  ? C
   H297       1.0     0.424406     0.848699     0.737208    Uiso  ? H
   C500       1.0     0.461619     0.822969     0.735151    Uiso  ? C
   H298       1.0     0.460900     0.820015     0.757713    Uiso  ? H
   C501       1.0     0.484151     0.813411     0.719684    Uiso  ? C
   H299       1.0     0.498723     0.801115     0.730875    Uiso  ? H
   C502       1.0     0.487099     0.820621     0.690363    Uiso  ? C
   C503       1.0     0.465892     0.836196     0.677775    Uiso  ? C
   H300       1.0     0.467226     0.841022     0.655596    Uiso  ? H
   C504       1.0     0.510783     0.808607     0.674161    Uiso  ? C
   C505       1.0     0.364369     0.831049     0.633288    Uiso  ? C
   C506       1.0     0.360681     0.800589     0.624070    Uiso  ? C
   C507       1.0     0.355415     0.779821     0.644076    Uiso  ? C
   H301       1.0     0.350502     0.786660     0.665892    Uiso  ? H
   C508       1.0     0.359491     0.751070     0.638467    Uiso  ? C
   H302       1.0     0.353920     0.733519     0.653734    Uiso  ? H
   C509       1.0     0.366740     0.743257     0.611248    Uiso  ? C
   H303       1.0     0.371155     0.721713     0.606321    Uiso  ? H
   C510       1.0     0.372865     0.763555     0.590316    Uiso  ? C
   C511       1.0     0.369395     0.792388     0.596723    Uiso  ? C
   H304       1.0     0.374669     0.807558     0.580680    Uiso  ? H
   C512       1.0     0.386465     0.754362     0.564140    Uiso  ? C
   C513       1.0     0.339368     0.212405     0.452126    Uiso  ? C
   C514       1.0     0.349301     0.227309     0.427166    Uiso  ? C
   C515       1.0     0.340157     0.254666     0.420010    Uiso  ? C
   H305       1.0     0.324956     0.264288     0.433674    Uiso  ? H
   C516       1.0     0.350385     0.270485     0.396992    Uiso  ? C
   H306       1.0     0.345122     0.292059     0.394159    Uiso  ? H
   C517       1.0     0.369221     0.258074     0.378434    Uiso  ? C
   H307       1.0     0.373936     0.269969     0.359994    Uiso  ? H
   C518       1.0     0.382650     0.231811     0.385981    Uiso  ? C
   C519       1.0     0.371410     0.215130     0.409042    Uiso  ? C
   H308       1.0     0.380497     0.193842     0.415065    Uiso  ? H
   C520       1.0     0.407417     0.221382     0.370324    Uiso  ? C
   C521       1.0     0.335303     0.226921     0.524977    Uiso  ? C
   C522       1.0     0.345654     0.252109     0.541387    Uiso  ? C
   C523       1.0     0.329912     0.277110     0.545484    Uiso  ? C
   H309       1.0     0.309239     0.279814     0.536478    Uiso  ? H
   C524       1.0     0.340959     0.299994     0.560989    Uiso  ? C
   H310       1.0     0.328370     0.318922     0.564575    Uiso  ? H
   C525       1.0     0.368462     0.297528     0.572636    Uiso  ? C
   H311       1.0     0.376758     0.315675     0.584274    Uiso  ? H
   C526       1.0     0.383746     0.273029     0.569652    Uiso  ? C
   C527       1.0     0.372748     0.250113     0.554464    Uiso  ? C
   H312       1.0     0.384395     0.229786     0.552998    Uiso  ? H
   C528       1.0     0.411424     0.268779     0.584624    Uiso  ? C
   C529       1.0     0.306164     0.145138     0.462577    Uiso  ? C
   C530       1.0     0.295096     0.122141     0.444138    Uiso  ? C
   C531       1.0     0.266746     0.113727     0.442570    Uiso  ? C
   H313       1.0     0.250137     0.125101     0.453793    Uiso  ? H
   C532       1.0     0.257799     0.886501     0.424311    Uiso  ? C
   H314       1.0     0.235468     0.880754     0.423456    Uiso  ? H
   C533       1.0     0.276056     0.871497     0.408930    Uiso  ? C
   H315       1.0     0.269068     0.853011     0.395671    Uiso  ? H
   C534       1.0     0.305589     0.877314     0.411657    Uiso  ? C
   C535       1.0     0.315591     0.104797     0.429575    Uiso  ? C
   H316       1.0     0.336732     0.109985     0.429976    Uiso  ? H
   C536       1.0     0.327040     0.860206     0.396648    Uiso  ? C
   C537       1.0     0.482476     0.282146     0.566443    Uiso  ? C
   C538       1.0     0.498027     0.300592     0.545989    Uiso  ? C
   C539       1.0     0.491442     0.330465     0.545713    Uiso  ? C
   H317       1.0     0.474301     0.340286     0.558701    Uiso  ? H
   C540       1.0     0.508582     0.348663     0.528731    Uiso  ? C
   H318       1.0     0.504355     0.370347     0.528101    Uiso  ? H
   C541       1.0     0.532340     0.338167     0.512904    Uiso  ? C
   H319       1.0     0.546201     0.351231     0.500046    Uiso  ? H
   C542       1.0     0.537296     0.309073     0.512418    Uiso  ? C
   C543       1.0     0.520583     0.290334     0.529702    Uiso  ? C
   H320       1.0     0.525412     0.267702     0.528502    Uiso  ? H
   C544       1.0     0.559214     0.295558     0.495463    Uiso  ? C
   C545       1.0     0.501948     0.245910     0.631831    Uiso  ? C
   C546       1.0     0.527359     0.240892     0.649071    Uiso  ? C
   C547       1.0     0.536620     0.259446     0.671166    Uiso  ? C
   H321       1.0     0.523516     0.275137     0.678487    Uiso  ? H
   C548       1.0     0.561801     0.254276     0.685748    Uiso  ? C
   H322       1.0     0.569499     0.267715     0.703384    Uiso  ? H
   C549       1.0     0.580296     0.233974     0.676307    Uiso  ? C
   H323       1.0     0.601830     0.234390     0.685748    Uiso  ? H
   C550       1.0     0.571856     0.215721     0.654635    Uiso  ? C
   C551       1.0     0.544074     0.217575     0.642429    Uiso  ? C
   H324       1.0     0.536874     0.202104     0.627136    Uiso  ? H
   C552       1.0     0.593139     0.196393     0.644412    Uiso  ? C
   C553       1.0     0.374129     0.869565     0.336726    Uiso  ? C
   C554       1.0     0.378792     0.894961     0.317936    Uiso  ? C
   C555       1.0     0.364051     0.103765     0.294362    Uiso  ? C
   H325       1.0     0.347721     0.883276     0.288821    Uiso  ? H
   C556       1.0     0.366848     0.127580     0.277649    Uiso  ? C
   H326       1.0     0.351265     0.130223     0.260656    Uiso  ? H
   C557       1.0     0.386297     0.150077     0.284760    Uiso  ? C
   H327       1.0     0.384620     0.169536     0.274862    Uiso  ? H
   C558       1.0     0.401825     0.147479     0.309882    Uiso  ? C
   C559       1.0     0.399138     0.122285     0.325904    Uiso  ? C
   H328       1.0     0.411642     0.118230     0.345592    Uiso  ? H
   C560       1.0     0.420767     0.169831     0.319317    Uiso  ? C
   C561       1.0     0.353755     0.788825     0.402410    Uiso  ? C
   C562       1.0     0.348224     0.763898     0.421507    Uiso  ? C
   C563       1.0     0.331723     0.740456     0.411867    Uiso  ? C
   H329       1.0     0.317669     0.741794     0.393501    Uiso  ? H
   C564       1.0     0.330928     0.715137     0.426939    Uiso  ? C
   H330       1.0     0.318396     0.696564     0.421128    Uiso  ? H
   C565       1.0     0.342348     0.714019     0.454122    Uiso  ? C
   H331       1.0     0.340598     0.692638     0.465184    Uiso  ? H
   C566       1.0     0.358314     0.737040     0.465657    Uiso  ? C
   C567       1.0     0.360323     0.762615     0.449533    Uiso  ? C
   H332       1.0     0.372224     0.779696     0.459084    Uiso  ? H
   C568       1.0     0.375927     0.733990     0.490592    Uiso  ? C
   C569       1.0     0.452739     0.718509     0.559246    Uiso  ? C
   C570       1.0     0.478818     0.712418     0.576012    Uiso  ? C
   C571       1.0     0.495419     0.689313     0.568375    Uiso  ? C
   H333       1.0     0.486673     0.672436     0.555910    Uiso  ? H
   C572       1.0     0.523713     0.688592     0.575745    Uiso  ? C
   H334       1.0     0.536501     0.670871     0.568165    Uiso  ? H
   C573       1.0     0.535748     0.708043     0.596333    Uiso  ? C
   H335       1.0     0.558529     0.706940     0.603403    Uiso  ? H
   C574       1.0     0.517260     0.729772     0.606024    Uiso  ? C
   C575       1.0     0.489124     0.731907     0.595415    Uiso  ? C
   H336       1.0     0.475836     0.749978     0.602818    Uiso  ? H
   C576       1.0     0.530440     0.752610     0.623213    Uiso  ? C
   O271       1.0     0.363813     0.895618     0.608923    Uiso  ? O
   O272       1.0     0.335682     0.893258     0.647951    Uiso  ? O
   O273       1.0     0.401384     0.123877     0.644112    Uiso  ? O
   O274       1.0     0.374008     0.117043     0.682285    Uiso  ? O
   O275       1.0     0.419389     0.865383     0.651834    Uiso  ? O
   O276       1.0     0.391309     0.861589     0.690649    Uiso  ? O
   O277       1.0     0.379651     0.847913     0.618115    Uiso  ? O
   O278       1.0     0.355182     0.840649     0.658120    Uiso  ? O
   O279       1.0     0.355767     0.194820     0.465226    Uiso  ? O
   O280       1.0     0.312749     0.216137     0.460963    Uiso  ? O
   O281       1.0     0.351660     0.205133     0.519907    Uiso  ? O
   O282       1.0     0.310452     0.228062     0.512936    Uiso  ? O
   O283       1.0     0.331371     0.155192     0.524962    Uiso  ? O
   O284       1.0     0.290765     0.180138     0.526680    Uiso  ? O
   O285       1.0     0.332518     0.144913     0.471964    Uiso  ? O
   O286       1.0     0.289249     0.166133     0.468912    Uiso  ? O
   O287       1.0     0.483439     0.255254     0.565619    Uiso  ? O
   O288       1.0     0.469406     0.294934     0.587318    Uiso  ? O
   O289       1.0     0.493113     0.227228     0.612285    Uiso  ? O
   O290       1.0     0.487650     0.269611     0.634166    Uiso  ? O
   O291       1.0     0.441080     0.216512     0.618146    Uiso  ? O
   O292       1.0     0.436039     0.255440     0.645680    Uiso  ? O
   O293       1.0     0.427583     0.247424     0.576918    Uiso  ? O
   O294       1.0     0.419650     0.285476     0.604691    Uiso  ? O
   O295       1.0     0.387090     0.867504     0.361105    Uiso  ? O
   O296       1.0     0.355496     0.850239     0.330016    Uiso  ? O
   O297       1.0     0.352885     0.861044     0.405250    Uiso  ? O
   O298       1.0     0.321524     0.844399     0.374173    Uiso  ? O
   O299       1.0     0.371160     0.809301     0.410728    Uiso  ? O
   O300       1.0     0.340823     0.790872     0.378039    Uiso  ? O
   O301       1.0     0.408524     0.817538     0.373660    Uiso  ? O
   O302       1.0     0.378760     0.800457     0.338208    Uiso  ? O
   O303       1.0     0.394415     0.753990     0.496231    Uiso  ? O
   O304       1.0     0.377549     0.709648     0.502737    Uiso  ? O
   O305       1.0     0.401959     0.771429     0.548971    Uiso  ? O
   O306       1.0     0.387945     0.727159     0.559152    Uiso  ? O
   O307       1.0     0.448765     0.744407     0.548988    Uiso  ? O
   O308       1.0     0.436384     0.697003     0.551270    Uiso  ? O
   O309       1.0     0.449942     0.737563     0.496566    Uiso  ? O
   O310       1.0     0.428955     0.694867     0.501821    Uiso  ? O
   O311       1.0     0.488005     0.178817     0.343932    Uiso  ? O
   O312       1.0     0.475997     0.206403     0.306529    Uiso  ? O
   O313       1.0     0.475874     0.220181     0.378654    Uiso  ? O
   O314       1.0     0.461583     0.248486     0.341624    Uiso  ? O
   O315       1.0     0.425153     0.203196     0.381825    Uiso  ? O
   O316       1.0     0.412399     0.229777     0.344097    Uiso  ? O
   O317       1.0     0.433400     0.165827     0.343548    Uiso  ? O
   O318       1.0     0.420549     0.194423     0.305426    Uiso  ? O
   O319       1.0     0.417105     0.887129     0.596746    Uiso  ? O
   O320       1.0     0.382626     0.157563     0.500148    Uiso  ? O
   O321       1.0     0.461619     0.199869     0.569166    Uiso  ? O
   O322       1.0     0.407464     0.857920     0.415313    Uiso  ? O
   O323       1.0     0.437894     0.791794     0.510972    Uiso  ? O
   O324       1.0     0.462895     0.163874     0.395276    Uiso  ? O
   Zn61       1.0     0.392908     0.883191     0.626621    Uiso  ? Zn
   Zn62       1.0     0.359748     0.875885     0.672460    Uiso  ? Zn
   Zn63       1.0     0.347213     0.173837     0.495378    Uiso  ? Zn
   Zn64       1.0     0.296740     0.198085     0.491379    Uiso  ? Zn
   Zn65       1.0     0.462219     0.232806     0.589809    Uiso  ? Zn
   Zn66       1.0     0.454690     0.280496     0.620643    Uiso  ? Zn
   Zn67       1.0     0.381543     0.840942     0.389987    Uiso  ? Zn
   Zn68       1.0     0.345204     0.820189     0.351840    Uiso  ? Zn
   Zn69       1.0     0.425094     0.755403     0.521393    Uiso  ? Zn
   Zn70       1.0     0.403248     0.704571     0.530737    Uiso  ? Zn
   Zn71       1.0     0.457106     0.189463     0.366273    Uiso  ? Zn
   Zn72       1.0     0.441697     0.222665     0.320023    Uiso  ? Zn
   H337       1.0     0.390753     0.170122     0.515943    Uiso  ? H
   H338       1.0     0.379066     0.140046     0.511918    Uiso  ? H
   H339       1.0     0.619406     0.851280     0.486575    Uiso  ? H
   H340       1.0     0.618174     0.852218     0.520850    Uiso  ? H
   H341       1.0     0.547408     0.850701     0.603325    Uiso  ? H
   H342       1.0     0.515930     0.839930     0.603560    Uiso  ? H
   H343       1.0     0.588995     0.157983     0.564013    Uiso  ? H
   H344       1.0     0.568999     0.147948     0.588276    Uiso  ? H
   H345       1.0     0.484493     0.163009     0.399571    Uiso  ? H
   H346       1.0     0.459685     0.145982     0.385258    Uiso  ? H
   H347       1.0     0.592704     0.891559     0.409608    Uiso  ? H
   H348       1.0     0.569105     0.110319     0.393601    Uiso  ? H
   H349       1.0     0.548142     0.210812     0.461708    Uiso  ? H
   H350       1.0     0.578612     0.197051     0.464556    Uiso  ? H
   H351       1.0     0.400445     0.852735     0.433294    Uiso  ? H
   H352       1.0     0.425427     0.848663     0.412391    Uiso  ? H
   H353       1.0     0.549448     0.801087     0.435860    Uiso  ? H
   H354       1.0     0.518725     0.807178     0.423565    Uiso  ? H
   H355       1.0     0.430414     0.794869     0.491500    Uiso  ? H
   H356       1.0     0.459224     0.791101     0.508043    Uiso  ? H
   H357       1.0     0.481424     0.193015     0.573777    Uiso  ? H
   H358       1.0     0.460874     0.205449     0.548829    Uiso  ? H
   H359       1.0     0.413379     0.110984     0.588102    Uiso  ? H
   H360       1.0     0.413941     0.871071     0.583153    Uiso  ? H
   C577       1.0     0.512533     0.325152     0.194252    Uiso  ? C
   C578       1.0     0.528425     0.333033     0.220814    Uiso  ? C
   C579       1.0     0.535786     0.313692     0.242053    Uiso  ? C
   H361       1.0     0.527995     0.291147     0.238666    Uiso  ? H
   C580       1.0     0.551119     0.321617     0.265531    Uiso  ? C
   H362       1.0     0.557536     0.305411     0.280696    Uiso  ? H
   C581       1.0     0.556597     0.350240     0.270767    Uiso  ? C
   H363       1.0     0.568106     0.354840     0.288615    Uiso  ? H
   C582       1.0     0.549722     0.370985     0.250230    Uiso  ? C
   C583       1.0     0.535627     0.362564     0.225223    Uiso  ? C
   H364       1.0     0.528937     0.379710     0.209691    Uiso  ? H
   C584       1.0     0.557030     0.401655     0.255793    Uiso  ? C
   C585       1.0     0.438728     0.334791     0.178302    Uiso  ? C
   C586       1.0     0.410700     0.341798     0.191342    Uiso  ? C
   C587       1.0     0.387438     0.321802     0.191009    Uiso  ? C
   H365       1.0     0.390594     0.300041     0.182573    Uiso  ? H
   C588       1.0     0.360073     0.329805     0.198854    Uiso  ? C
   H366       1.0     0.342468     0.313675     0.198521    Uiso  ? H
   C589       1.0     0.354506     0.357737     0.207508    Uiso  ? C
   H367       1.0     0.334554     0.363790     0.213998    Uiso  ? H
   C590       1.0     0.377638     0.377135     0.210144    Uiso  ? C
   C591       1.0     0.405095     0.369331     0.200154    Uiso  ? C
   H368       1.0     0.422841     0.385703     0.198845    Uiso  ? H
   C592       1.0     0.372672     0.406984     0.216165    Uiso  ? C
   C593       1.0     0.446831     0.310231     0.110815    Uiso  ? C
   C594       1.0     0.428249     0.303472     0.886385    Uiso  ? C
   C595       1.0     0.415907     0.276942     0.882909    Uiso  ? C
   H369       1.0     0.418136     0.260015     0.897909    Uiso  ? H
   C596       1.0     0.396197     0.273464     0.859766    Uiso  ? C
   H370       1.0     0.382565     0.254603     0.861702    Uiso  ? H
   C597       1.0     0.392994     0.293373     0.839233    Uiso  ? C
   H371       1.0     0.379768     0.289993     0.819663    Uiso  ? H
   C598       1.0     0.407844     0.318856     0.841791    Uiso  ? C
   C599       1.0     0.422256     0.325778     0.866838    Uiso  ? C
   H372       1.0     0.431494     0.345927     0.871597    Uiso  ? H
   C600       1.0     0.403715     0.340161     0.817583    Uiso  ? C
   C601       1.0     0.519677     0.300832     0.120911    Uiso  ? C
   C602       1.0     0.545277     0.293492     0.103194    Uiso  ? C
   C603       1.0     0.561606     0.268430     0.106341    Uiso  ? C
   H373       1.0     0.554822     0.251547     0.120296    Uiso  ? H
   C604       1.0     0.584419     0.261987     0.890832    Uiso  ? C
   H374       1.0     0.596409     0.240992     0.892995    Uiso  ? H
   C605       1.0     0.594736     0.283538     0.871578    Uiso  ? C
   H375       1.0     0.613519     0.276202     0.858156    Uiso  ? H
   C606       1.0     0.580898     0.309419     0.868162    Uiso  ? C
   C607       1.0     0.555490     0.312952     0.883615    Uiso  ? C
   H376       1.0     0.543478     0.332865     0.881931    Uiso  ? H
   C608       1.0     0.590393     0.331205     0.847268    Uiso  ? C
   C609       1.0     0.572365     0.504121     0.272812    Uiso  ? C
   C610       1.0     0.574933     0.534645     0.279761    Uiso  ? C
   C611       1.0     0.573170     0.544920     0.308104    Uiso  ? C
   H377       1.0     0.568481     0.530145     0.325488    Uiso  ? H
   C612       1.0     0.579662     0.572958     0.313215    Uiso  ? C
   H378       1.0     0.578640     0.582174     0.334157    Uiso  ? H
   C613       1.0     0.584930     0.591970     0.291775    Uiso  ? C
   H379       1.0     0.584851     0.615041     0.297747    Uiso  ? H
   C614       1.0     0.583167     0.582963     0.262808    Uiso  ? C
   C615       1.0     0.578341     0.554503     0.256554    Uiso  ? C
   H380       1.0     0.580249     0.546703     0.234509    Uiso  ? H
   C616       1.0     0.587152     0.604446     0.239635    Uiso  ? C
   C617       1.0     0.514738     0.455290     0.277757    Uiso  ? C
   C618       1.0     0.484779     0.455110     0.288551    Uiso  ? C
   C619       1.0     0.479808     0.454382     0.318036    Uiso  ? C
   H381       1.0     0.496458     0.455871     0.334304    Uiso  ? H
   C620       1.0     0.452837     0.453566     0.328900    Uiso  ? C
   H382       1.0     0.451827     0.454473     0.352472    Uiso  ? H
   C621       1.0     0.430075     0.452889     0.310477    Uiso  ? C
   H383       1.0     0.407661     0.452889     0.318899    Uiso  ? H
   C622       1.0     0.433458     0.455084     0.280749    Uiso  ? C
   C623       1.0     0.461163     0.457207     0.268897    Uiso  ? C
   H384       1.0     0.463767     0.459970     0.245675    Uiso  ? H
   C624       1.0     0.408183     0.456308     0.261209    Uiso  ? C
   C625       1.0     0.615578     0.444105     0.246063    Uiso  ? C
   C626       1.0     0.644354     0.438290     0.235258    Uiso  ? C
   C627       1.0     0.663750     0.420816     0.249346    Uiso  ? C
   H385       1.0     0.658073     0.408482     0.267751    Uiso  ? H
   C628       1.0     0.690346     0.416793     0.237442    Uiso  ? C
   H386       1.0     0.704379     0.402512     0.247267    Uiso  ? H
   C629       1.0     0.699945     0.433922     0.215257    Uiso  ? C
   H387       1.0     0.720757     0.434819     0.209657    Uiso  ? H
   C630       1.0     0.680239     0.450412     0.199887    Uiso  ? C
   C631       1.0     0.653136     0.452877     0.210223    Uiso  ? C
   H388       1.0     0.638168     0.468882     0.201051    Uiso  ? H
   C632       1.0     0.688024     0.465162     0.173711    Uiso  ? C
   C633       1.0     0.361960     0.512409     0.234677    Uiso  ? C
   C634       1.0     0.357386     0.542797     0.238036    Uiso  ? C
   C635       1.0     0.338734     0.554315     0.259124    Uiso  ? C
   H389       1.0     0.323777     0.540447     0.271202    Uiso  ? H
   C636       1.0     0.338800     0.583284     0.264975    Uiso  ? C
   H390       1.0     0.327282     0.593531     0.282389    Uiso  ? H
   C637       1.0     0.356285     0.601914     0.250385    Uiso  ? C
   H391       1.0     0.355049     0.623583     0.256039    Uiso  ? H
   C638       1.0     0.371605     0.592148     0.226436    Uiso  ? C
   C639       1.0     0.372564     0.562715     0.221280    Uiso  ? C
   H392       1.0     0.386072     0.556060     0.204155    Uiso  ? H
   C640       1.0     0.383988     0.612976     0.207761    Uiso  ? C
   C641       1.0     0.332556     0.467533     0.190719    Uiso  ? C
   C642       1.0     0.309012     0.472625     0.170708    Uiso  ? C
   C643       1.0     0.281504     0.471465     0.179943    Uiso  ? C
   H393       1.0     0.278752     0.466284     0.203116    Uiso  ? H
   C644       1.0     0.258070     0.481377     0.163202    Uiso  ? C
   H394       1.0     0.236545     0.481390     0.170688    Uiso  ? H
   C645       1.0     0.263905     0.490642     0.135145    Uiso  ? C
   H395       1.0     0.245700     0.498487     0.122735    Uiso  ? H
   C646       1.0     0.292377     0.490797     0.125719    Uiso  ? C
   C647       1.0     0.314666     0.482885     0.143944    Uiso  ? C
   H396       1.0     0.336244     0.483430     0.135733    Uiso  ? H
   C648       1.0     0.297991     0.502266     0.899063    Uiso  ? C
   C649       1.0     0.695044     0.537635     0.146355    Uiso  ? C
   C650       1.0     0.695500     0.566420     0.159973    Uiso  ? C
   C651       1.0     0.720993     0.583042     0.161355    Uiso  ? C
   H397       1.0     0.740255     0.572733     0.152245    Uiso  ? H
   C652       1.0     0.719922     0.611839     0.170004    Uiso  ? C
   H398       1.0     0.738230     0.626243     0.166973    Uiso  ? H
   C653       1.0     0.694486     0.624300     0.179091    Uiso  ? C
   H399       1.0     0.694422     0.647034     0.184295    Uiso  ? H
   C654       1.0     0.668933     0.607994     0.178754    Uiso  ? C
   C655       1.0     0.670178     0.578279     0.170551    Uiso  ? C
   H400       1.0     0.651408     0.565349     0.174904    Uiso  ? H
   C656       1.0     0.641027     0.620383     0.189870    Uiso  ? C
   C657       1.0     0.694808     0.442254     0.100000    Uiso  ? C
   C658       1.0     0.694168     0.415673     0.881834    Uiso  ? C
   C659       1.0     0.719101     0.398540     0.880477    Uiso  ? C
   H401       1.0     0.738516     0.403729     0.891125    Uiso  ? H
   C660       1.0     0.717496     0.372900     0.866136    Uiso  ? C
   H402       1.0     0.735553     0.357207     0.867055    Uiso  ? H
   C661       1.0     0.693481     0.363781     0.851853    Uiso  ? C
   H403       1.0     0.691154     0.344092     0.840684    Uiso  ? H
   C662       1.0     0.669968     0.382649     0.850320    Uiso  ? C
   C663       1.0     0.670085     0.406846     0.866737    Uiso  ? C
   H404       1.0     0.651420     0.419367     0.868813    Uiso  ? H
   C664       1.0     0.645141     0.374945     0.832621    Uiso  ? C
   C665       1.0     0.559814     0.346200     0.780846    Uiso  ? C
   C666       1.0     0.533358     0.336129     0.767288    Uiso  ? C
   C667       1.0     0.532849     0.311554     0.751387    Uiso  ? C
   H405       1.0     0.551304     0.298480     0.749699    Uiso  ? H
   C668       1.0     0.506896     0.299763     0.740408    Uiso  ? C
   H406       1.0     0.508221     0.280513     0.726636    Uiso  ? H
   C669       1.0     0.482527     0.315758     0.741854    Uiso  ? C
   H407       1.0     0.462437     0.305642     0.733944    Uiso  ? H
   C670       1.0     0.481736     0.341028     0.757783    Uiso  ? C
   C671       1.0     0.507027     0.351154     0.770938    Uiso  ? C
   H408       1.0     0.507273     0.368502     0.784230    Uiso  ? H
   C672       1.0     0.454213     0.352991     0.763982    Uiso  ? C
   O325       1.0     0.510098     0.343367     0.173836    Uiso  ? O
   O326       1.0     0.499509     0.301061     0.191556    Uiso  ? O
   O327       1.0     0.456722     0.354567     0.167866    Uiso  ? O
   O328       1.0     0.445643     0.308144     0.177203    Uiso  ? O
   O329       1.0     0.458115     0.334511     0.115870    Uiso  ? O
   O330       1.0     0.451074     0.289594     0.129031    Uiso  ? O
   O331       1.0     0.512037     0.327665     0.122620    Uiso  ? O
   O332       1.0     0.507271     0.281752     0.136891    Uiso  ? O
   O333       1.0     0.565459     0.495333     0.247687    Uiso  ? O
   O334       1.0     0.575929     0.485035     0.292937    Uiso  ? O
   O335       1.0     0.520095     0.462925     0.251564    Uiso  ? O
   O336       1.0     0.534300     0.447176     0.296059    Uiso  ? O
   O337       1.0     0.550443     0.420353     0.237281    Uiso  ? O
   O338       1.0     0.567468     0.409103     0.280480    Uiso  ? O
   O339       1.0     0.594727     0.451078     0.228185    Uiso  ? O
   O340       1.0     0.609806     0.442421     0.273696    Uiso  ? O
   O341       1.0     0.378907     0.502215     0.214859    Uiso  ? O
   O342       1.0     0.350124     0.493348     0.252082    Uiso  ? O
   O343       1.0     0.358834     0.471842     0.182904    Uiso  ? O
   O344       1.0     0.327810     0.460392     0.217497    Uiso  ? O
   O345       1.0     0.384944     0.426694     0.200858    Uiso  ? O
   O346       1.0     0.355827     0.414899     0.236431    Uiso  ? O
   O347       1.0     0.413710     0.463756     0.235022    Uiso  ? O
   O348       1.0     0.382238     0.453933     0.269747    Uiso  ? O
   O349       1.0     0.670940     0.527615     0.136553    Uiso  ? O
   O350       1.0     0.718513     0.521586     0.145590    Uiso  ? O
   O351       1.0     0.667591     0.474610     0.157008    Uiso  ? O
   O352       1.0     0.714215     0.468871     0.166222    Uiso  ? O
   O353       1.0     0.672176     0.458810     0.100886    Uiso  ? O
   O354       1.0     0.717977     0.451165     0.113037    Uiso  ? O
   O355       1.0     0.679963     0.505286     0.889019    Uiso  ? O
   O356       1.0     0.726878     0.500627     0.897067    Uiso  ? O
   O357       1.0     0.622907     0.390146     0.837547    Uiso  ? O
   O358       1.0     0.645001     0.354085     0.814151    Uiso  ? O
   O359       1.0     0.578932     0.355835     0.847911    Uiso  ? O
   O360       1.0     0.604232     0.323449     0.824679    Uiso  ? O
   O361       1.0     0.559002     0.367620     0.798776    Uiso  ? O
   O362       1.0     0.583174     0.330993     0.779194    Uiso  ? O
   O363       1.0     0.595258     0.409499     0.795063    Uiso  ? O
   O364       1.0     0.614649     0.374221     0.768295    Uiso  ? O
   O365       1.0     0.590749     0.647910     0.156764    Uiso  ? O
   O366       1.0     0.604618     0.681543     0.188802    Uiso  ? O
   O367       1.0     0.551208     0.638819     0.196752    Uiso  ? O
   O368       1.0     0.572138     0.667932     0.229104    Uiso  ? O
   O369       1.0     0.576464     0.598816     0.214536    Uiso  ? O
   O370       1.0     0.601819     0.627401     0.243737    Uiso  ? O
   O371       1.0     0.617536     0.608507     0.181790    Uiso  ? O
   O372       1.0     0.641169     0.643902     0.204323    Uiso  ? O
   O373       1.0     0.495478     0.378995     0.130730    Uiso  ? O
   O374       1.0     0.547809     0.464464     0.198179    Uiso  ? O
   O375       1.0     0.416598     0.468392     0.179267    Uiso  ? O
   O376       1.0     0.630905     0.492674     0.116046    Uiso  ? O
   O377       1.0     0.567345     0.408176     0.841856    Uiso  ? O
   O378       1.0     0.563998     0.596428     0.159866    Uiso  ? O
   Zn73       1.0     0.485214     0.343844     0.144377    Uiso  ? Zn
   Zn74       1.0     0.476205     0.290122     0.159538    Uiso  ? Zn
   Zn75       1.0     0.557649     0.457674     0.236715    Uiso  ? Zn
   Zn76       1.0     0.574148     0.446218     0.289627    Uiso  ? Zn
   Zn77       1.0     0.388825     0.465363     0.205844    Uiso  ? Zn
   Zn78       1.0     0.350455     0.453341     0.248979    Uiso  ? Zn
   Zn79       1.0     0.668946     0.491162     0.122044    Uiso  ? Zn
   Zn80       1.0     0.724854     0.485584     0.131506    Uiso  ? Zn
   Zn81       1.0     0.588365     0.383094     0.821584    Uiso  ? Zn
   Zn82       1.0     0.615004     0.344262     0.792168    Uiso  ? Zn
   Zn83       1.0     0.582737     0.621100     0.184827    Uiso  ? Zn
   Zn84       1.0     0.608086     0.658297     0.219289    Uiso  ? Zn
   C673       1.0     0.490798     0.683055     0.789984    Uiso  ? C
   C674       1.0     0.473327     0.675274     0.764319    Uiso  ? C
   C675       1.0     0.463782     0.697327     0.745903    Uiso  ? C
   H409       1.0     0.469158     0.719811     0.750418    Uiso  ? H
   C676       1.0     0.449785     0.688634     0.720272    Uiso  ? C
   H410       1.0     0.442091     0.706179     0.707289    Uiso  ? H
   C677       1.0     0.443236     0.660673     0.712970    Uiso  ? C
   H411       1.0     0.429857     0.654514     0.694144    Uiso  ? H
   C678       1.0     0.453405     0.638988     0.731620    Uiso  ? C
   C679       1.0     0.468373     0.646716     0.756884    Uiso  ? C
   H412       1.0     0.471660     0.630766     0.772836    Uiso  ? H
   C680       1.0     0.450061     0.608179     0.724910    Uiso  ? C
   C681       1.0     0.559918     0.676296     0.803022    Uiso  ? C
   C682       1.0     0.587517     0.669404     0.788563    Uiso  ? C
   C683       1.0     0.602960     0.689644     0.772789    Uiso  ? C
   H413       1.0     0.595459     0.710794     0.772269    Uiso  ? H
   C684       1.0     0.626466     0.681097     0.756375    Uiso  ? C
   H414       1.0     0.636355     0.696810     0.743884    Uiso  ? H
   C685       1.0     0.636194     0.653290     0.757089    Uiso  ? C
   H415       1.0     0.654347     0.648502     0.743739    Uiso  ? H
   C686       1.0     0.620795     0.632516     0.772416    Uiso  ? C
   C687       1.0     0.596477     0.641506     0.788164    Uiso  ? C
   H416       1.0     0.583063     0.626283     0.799514    Uiso  ? H
   C688       1.0     0.626150     0.602124     0.768225    Uiso  ? C
   C689       1.0     0.552839     0.701405     0.871864    Uiso  ? C
   C690       1.0     0.573792     0.705857     0.894367    Uiso  ? C
   C691       1.0     0.584993     0.733528     0.897156    Uiso  ? C
   H417       1.0     0.581901     0.749910     0.882801    Uiso  ? H
   C692       1.0     0.603028     0.741251     0.119743    Uiso  ? C
   H418       1.0     0.612692     0.761691     0.120943    Uiso  ? H
   C693       1.0     0.607861     0.721393     0.141317    Uiso  ? C
   H419       1.0     0.617752     0.726444     0.160168    Uiso  ? H
   C694       1.0     0.595875     0.694473     0.138545    Uiso  ? C
   C695       1.0     0.578536     0.687408     0.114897    Uiso  ? C
   H420       1.0     0.567782     0.667503     0.114255    Uiso  ? H
   C696       1.0     0.598816     0.673717     0.161983    Uiso  ? C
   C697       1.0     0.478521     0.706270     0.859066    Uiso  ? C
   C698       1.0     0.454251     0.714549     0.876831    Uiso  ? C
   C699       1.0     0.444736     0.742354     0.878335    Uiso  ? C
   H421       1.0     0.452769     0.760232     0.865863    Uiso  ? H
   C700       1.0     0.425272     0.750158     0.900000    Uiso  ? C
   H422       1.0     0.421380     0.774281     0.103285    Uiso  ? H
   C701       1.0     0.413970     0.731973     0.118455    Uiso  ? C
   H423       1.0     0.400216     0.739321     0.134399    Uiso  ? H
   C702       1.0     0.423819     0.703859     0.117081    Uiso  ? C
   C703       1.0     0.442657     0.694443     0.896880    Uiso  ? C
   H424       1.0     0.449206     0.672322     0.895428    Uiso  ? H
   C704       1.0     0.417385     0.683788     0.140311    Uiso  ? C
   C705       1.0     0.435434     0.506003     0.707865    Uiso  ? C
   C706       1.0     0.430760     0.475840     0.700051    Uiso  ? C
   C707       1.0     0.436011     0.465018     0.672112    Uiso  ? C
   H425       1.0     0.437773     0.480495     0.655965    Uiso  ? H
   C708       1.0     0.432147     0.435845     0.665754    Uiso  ? C
   H426       1.0     0.437398     0.429489     0.645582    Uiso  ? H
   C709       1.0     0.424018     0.416839     0.686656    Uiso  ? C
   H427       1.0     0.424016     0.395908     0.682075    Uiso  ? H
   C710       1.0     0.417873     0.427723     0.714546    Uiso  ? C
   C711       1.0     0.421389     0.457037     0.721215    Uiso  ? C
   H428       1.0     0.418587     0.464335     0.742005    Uiso  ? H
   C712       1.0     0.411619     0.408229     0.739366    Uiso  ? C
   C713       1.0     0.491595     0.558624     0.701378    Uiso  ? C
   C714       1.0     0.520712     0.559438     0.690049    Uiso  ? C
   C715       1.0     0.526650     0.561207     0.660968    Uiso  ? C
   H429       1.0     0.510281     0.561391     0.645470    Uiso  ? H
   C716       1.0     0.554027     0.564170     0.651881    Uiso  ? C
   H430       1.0     0.557819     0.567872     0.629789    Uiso  ? H
   C717       1.0     0.576120     0.562339     0.671389    Uiso  ? C
   H431       1.0     0.598201     0.566167     0.663231    Uiso  ? H
   C718       1.0     0.570587     0.556893     0.700265    Uiso  ? C
   C719       1.0     0.543748     0.556683     0.709806    Uiso  ? C
   H432       1.0     0.538024     0.557061     0.731645    Uiso  ? H
   C720       1.0     0.592880     0.554433     0.720812    Uiso  ? C
   C721       1.0     0.393334     0.562617     0.734726    Uiso  ? C
   C722       1.0     0.363514     0.565296     0.743417    Uiso  ? C
   C723       1.0     0.342312     0.574012     0.723162    Uiso  ? C
   H433       1.0     0.347401     0.580049     0.702154    Uiso  ? H
   C724       1.0     0.314607     0.577638     0.732665    Uiso  ? C
   H434       1.0     0.298722     0.583300     0.718592    Uiso  ? H
   C725       1.0     0.306412     0.567781     0.759293    Uiso  ? C
   H435       1.0     0.284912     0.569389     0.764045    Uiso  ? H
   C726       1.0     0.326368     0.558567     0.778687    Uiso  ? C
   C727       1.0     0.354508     0.558335     0.770539    Uiso  ? C
   H436       1.0     0.369749     0.548854     0.784283    Uiso  ? H
   C728       1.0     0.319060     0.549980     0.809100    Uiso  ? C
   C729       1.0     0.630803     0.500843     0.745192    Uiso  ? C
   C730       1.0     0.630107     0.470561     0.738438    Uiso  ? C
   C731       1.0     0.638643     0.462297     0.711801    Uiso  ? C
   H437       1.0     0.646604     0.476951     0.695217    Uiso  ? H
   C732       1.0     0.637354     0.432925     0.704655    Uiso  ? C
   H438       1.0     0.647412     0.423848     0.686527    Uiso  ? H
   C733       1.0     0.626740     0.413177     0.723451    Uiso  ? C
   H439       1.0     0.625768     0.389823     0.718386    Uiso  ? H
   C734       1.0     0.617905     0.422985     0.750195    Uiso  ? C
   C735       1.0     0.620157     0.451447     0.758237    Uiso  ? C
   H440       1.0     0.612060     0.460988     0.778040    Uiso  ? H
   C736       1.0     0.609430     0.401901     0.772530    Uiso  ? C
   C737       1.0     0.669635     0.546835     0.789273    Uiso  ? C
   C738       1.0     0.693826     0.537499     0.806845    Uiso  ? C
   C739       1.0     0.721552     0.535926     0.796161    Uiso  ? C
   H441       1.0     0.724352     0.538632     0.773631    Uiso  ? H
   C740       1.0     0.744376     0.532957     0.814648    Uiso  ? C
   H442       1.0     0.765326     0.535911     0.808470    Uiso  ? H
   C741       1.0     0.739080     0.524014     0.842446    Uiso  ? C
   H443       1.0     0.757560     0.517058     0.854031    Uiso  ? H
   C742       1.0     0.710747     0.520742     0.852579    Uiso  ? C
   C743       1.0     0.689485     0.530170     0.835817    Uiso  ? C
   H444       1.0     0.667578     0.526998     0.843387    Uiso  ? H
   C744       1.0     0.706510     0.508586     0.880462    Uiso  ? C
   C745       1.0     0.308435     0.479318     0.826852    Uiso  ? C
   C746       1.0     0.308607     0.453894     0.808718    Uiso  ? C
   C747       1.0     0.285294     0.445407     0.792210    Uiso  ? C
   H445       1.0     0.264712     0.455723     0.795495    Uiso  ? H
   C748       1.0     0.286316     0.423100     0.774148    Uiso  ? C
   H446       1.0     0.268784     0.416642     0.763350    Uiso  ? H
   C749       1.0     0.310832     0.407351     0.770808    Uiso  ? C
   H447       1.0     0.309409     0.390267     0.755399    Uiso  ? H
   C750       1.0     0.334189     0.414019     0.787867    Uiso  ? C
   C751       1.0     0.333375     0.437003     0.805959    Uiso  ? C
   H448       1.0     0.352135     0.442167     0.819144    Uiso  ? H
   C752       1.0     0.359801     0.394892     0.786610    Uiso  ? C
   C753       1.0     0.305738     0.571346     0.883439    Uiso  ? C
   C754       1.0     0.305655     0.596088     0.101542    Uiso  ? C
   C755       1.0     0.281044     0.611824     0.106527    Uiso  ? C
   H449       1.0     0.261743     0.604198     0.897230    Uiso  ? H
   C756       1.0     0.282325     0.636732     0.123464    Uiso  ? C
   H450       1.0     0.261606     0.644911     0.128628    Uiso  ? H
   C757       1.0     0.307494     0.645902     0.133608    Uiso  ? C
   H451       1.0     0.308745     0.664501     0.145424    Uiso  ? H
   C758       1.0     0.333326     0.630783     0.129320    Uiso  ? C
   C759       1.0     0.330688     0.604766     0.115446    Uiso  ? C
   H452       1.0     0.350309     0.592163     0.115660    Uiso  ? H
   C760       1.0     0.360240     0.636745     0.145863    Uiso  ? C
   C761       1.0     0.442990     0.662127     0.204656    Uiso  ? C
   C762       1.0     0.469446     0.670788     0.219427    Uiso  ? C
   C763       1.0     0.468401     0.689224     0.242388    Uiso  ? C
   H453       1.0     0.449380     0.697567     0.250137    Uiso  ? H
   C764       1.0     0.494004     0.698358     0.256068    Uiso  ? C
   H454       1.0     0.491731     0.710798     0.274667    Uiso  ? H
   C765       1.0     0.519665     0.692804     0.243667    Uiso  ? C
   H455       1.0     0.538955     0.699238     0.253091    Uiso  ? H
   C766       1.0     0.520763     0.672139     0.222362    Uiso  ? C
   C767       1.0     0.496415     0.660408     0.210732    Uiso  ? C
   H456       1.0     0.497966     0.645437     0.192634    Uiso  ? H
   C768       1.0     0.549302     0.659515     0.216191    Uiso  ? C
   O379       1.0     0.495228     0.663881     0.809399    Uiso  ? O
   O380       1.0     0.501117     0.708351     0.791576    Uiso  ? O
   O381       1.0     0.547764     0.656773     0.817674    Uiso  ? O
   O382       1.0     0.550975     0.703000     0.803049    Uiso  ? O
   O383       1.0     0.544437     0.675819     0.865415    Uiso  ? O
   O384       1.0     0.546774     0.721630     0.853552    Uiso  ? O
   O385       1.0     0.490545     0.681025     0.863335    Uiso  ? O
   O386       1.0     0.490208     0.724491     0.841515    Uiso  ? O
   O387       1.0     0.441086     0.515359     0.733770    Uiso  ? O
   O388       1.0     0.434768     0.525231     0.687091    Uiso  ? O
   O389       1.0     0.485400     0.550892     0.727334    Uiso  ? O
   O390       1.0     0.471552     0.562282     0.682084    Uiso  ? O
   O391       1.0     0.451893     0.589703     0.745495    Uiso  ? O
   O392       1.0     0.441313     0.600644     0.699641    Uiso  ? O
   O393       1.0     0.412588     0.555135     0.753522    Uiso  ? O
   O394       1.0     0.400086     0.566803     0.707730    Uiso  ? O
   O395       1.0     0.615324     0.509366     0.766444    Uiso  ? O
   O396       1.0     0.647272     0.518742     0.732822    Uiso  ? O
   O397       1.0     0.643321     0.541355     0.796874    Uiso  ? O
   O398       1.0     0.675567     0.555330     0.763772    Uiso  ? O
   O399       1.0     0.612003     0.584212     0.782826    Uiso  ? O
   O400       1.0     0.644431     0.593200     0.748365    Uiso  ? O
   O401       1.0     0.586323     0.549057     0.747258    Uiso  ? O
   O402       1.0     0.619224     0.560465     0.713383    Uiso  ? O
   O403       1.0     0.332049     0.490191     0.838813    Uiso  ? O
   O404       1.0     0.283786     0.493427     0.830708    Uiso  ? O
   O405       1.0     0.340184     0.543026     0.825588    Uiso  ? O
   O406       1.0     0.293448     0.545698     0.816268    Uiso  ? O
   O407       1.0     0.330484     0.558297     0.879276    Uiso  ? O
   O408       1.0     0.281712     0.561430     0.871756    Uiso  ? O
   O409       1.0     0.323959     0.505411     0.890616    Uiso  ? O
   O410       1.0     0.277770     0.508581     0.881340    Uiso  ? O
   O411       1.0     0.383186     0.621138     0.141575    Uiso  ? O
   O412       1.0     0.359551     0.658336     0.164543    Uiso  ? O
   O413       1.0     0.423066     0.656976     0.137357    Uiso  ? O
   O414       1.0     0.403098     0.691544     0.162397    Uiso  ? O
   O415       1.0     0.443629     0.643664     0.184259    Uiso  ? O
   O416       1.0     0.418314     0.673550     0.211024    Uiso  ? O
   O417       1.0     0.402001     0.605540     0.188570    Uiso  ? O
   O418       1.0     0.376750     0.639633     0.210452    Uiso  ? O
   O419       1.0     0.412902     0.366305     0.821264    Uiso  ? O
   O420       1.0     0.395357     0.333001     0.791981    Uiso  ? O
   O421       1.0     0.451972     0.375135     0.781325    Uiso  ? O
   O422       1.0     0.430915     0.343219     0.752941    Uiso  ? O
   O423       1.0     0.420367     0.414447     0.764340    Uiso  ? O
   O424       1.0     0.400807     0.382617     0.733373    Uiso  ? O
   O425       1.0     0.382690     0.404554     0.798068    Uiso  ? O
   O426       1.0     0.359500     0.372446     0.771285    Uiso  ? O
   O427       1.0     0.512336     0.630336     0.855938    Uiso  ? O
   O428       1.0     0.467012     0.544133     0.778595    Uiso  ? O
   O429       1.0     0.588289     0.542958     0.808411    Uiso  ? O
   O430       1.0     0.375446     0.521142     0.870399    Uiso  ? O
   O431       1.0     0.440522     0.600771     0.148466    Uiso  ? O
   O432       1.0     0.433350     0.418235     0.816522    Uiso  ? O
   Zn85       1.0     0.517478     0.665586     0.840389    Uiso  ? Zn
   Zn86       1.0     0.523448     0.719851     0.821936    Uiso  ? Zn
   Zn87       1.0     0.451244     0.550292     0.743960    Uiso  ? Zn
   Zn88       1.0     0.435188     0.564647     0.689865    Uiso  ? Zn
   Zn89       1.0     0.611470     0.547108     0.777039    Uiso  ? Zn
   Zn90       1.0     0.648926     0.556450     0.737886    Uiso  ? Zn
   Zn91       1.0     0.336821     0.523990     0.859679    Uiso  ? Zn
   Zn92       1.0     0.279621     0.530554     0.848235    Uiso  ? Zn
   Zn93       1.0     0.415975     0.628234     0.162483    Uiso  ? Zn
   Zn94       1.0     0.387379     0.669739     0.190697    Uiso  ? Zn
   Zn95       1.0     0.418025     0.391128     0.793235    Uiso  ? Zn
   Zn96       1.0     0.393805     0.354261     0.761237    Uiso  ? Zn
   H457       1.0     0.450805     0.535970     0.789428    Uiso  ? H
   H458       1.0     0.470309     0.562912     0.786230    Uiso  ? H
   H459       1.0     0.560938     0.455606     0.183674    Uiso  ? H
   H460       1.0     0.543601     0.485035     0.194835    Uiso  ? H
   H461       1.0     0.579363     0.590040     0.147104    Uiso  ? H
   H462       1.0     0.552292     0.610690     0.150315    Uiso  ? H
   H463       1.0     0.628468     0.509627     0.103904    Uiso  ? H
   H464       1.0     0.619875     0.494691     0.133131    Uiso  ? H
   H465       1.0     0.447904     0.427210     0.805185    Uiso  ? H
   H466       1.0     0.419069     0.433360     0.817127    Uiso  ? H
   H467       1.0     0.497923     0.375288     0.109842    Uiso  ? H
   H468       1.0     0.477161     0.388371     0.133750    Uiso  ? H
   H469       1.0     0.547815     0.399517     0.839878    Uiso  ? H
   H470       1.0     0.565012     0.425880     0.830460    Uiso  ? H
   H471       1.0     0.381714     0.502635     0.878890    Uiso  ? H
   H472       1.0     0.386039     0.522756     0.852619    Uiso  ? H
   H473       1.0     0.423747     0.487431     0.178603    Uiso  ? H
   H474       1.0     0.408295     0.466687     0.158921    Uiso  ? H
   H475       1.0     0.432226     0.581152     0.150207    Uiso  ? H
   H476       1.0     0.457668     0.601044     0.159896    Uiso  ? H
   H477       1.0     0.593309     0.524955     0.817674    Uiso  ? H
   H478       1.0     0.568829     0.541790     0.800812    Uiso  ? H
   H479       1.0     0.515890     0.616023     0.839664    Uiso  ? H
   H480       1.0     0.528739     0.627439     0.869059    Uiso  ? H
   C769       1.0     0.604146     0.421594     0.335973    Uiso  ? C
   C770       1.0     0.601240     0.412348     0.363273    Uiso  ? C
   C771       1.0     0.567748     0.441079     0.351683    Uiso  ? C
   N1         1.0     0.582688     0.438261     0.328069    Uiso  ? N
   H481       1.0     0.619504     0.413096     0.321183    Uiso  ? H
   H482       1.0     0.613123     0.394565     0.372725    Uiso  ? H
   H483       1.0     0.546780     0.452340     0.351062    Uiso  ? H
   N2         1.0     0.576678     0.424904     0.373832    Uiso  ? N
   C772       1.0     0.557405     0.414447     0.396366    Uiso  ? C
   H484       1.0     0.568034     0.400215     0.410766    Uiso  ? H
   H485       1.0     0.548948     0.432558     0.408989    Uiso  ? H
   C773       1.0     0.533956     0.398815     0.380981    Uiso  ? C
   C774       1.0     0.538418     0.374020     0.366066    Uiso  ? C
   C775       1.0     0.506887     0.411192     0.379553    Uiso  ? C
   C776       1.0     0.519077     0.362619     0.347225    Uiso  ? C
   H486       1.0     0.560026     0.365009     0.365056    Uiso  ? H
   C777       1.0     0.485235     0.398118     0.362465    Uiso  ? C
   H487       1.0     0.498820     0.428410     0.393474    Uiso  ? H
   C778       1.0     0.492929     0.375850     0.344458    Uiso  ? C
   H488       1.0     0.526328     0.344684     0.332985    Uiso  ? H
   H489       1.0     0.462272     0.407604     0.362931    Uiso  ? H
   C779       1.0     0.471667     0.363096     0.323743    Uiso  ? C
   C780       1.0     0.480056     0.352317     0.296667    Uiso  ? C
   C781       1.0     0.445565     0.357251     0.334558    Uiso  ? C
   C782       1.0     0.459625     0.336990     0.280234    Uiso  ? C
   H490       1.0     0.501295     0.355519     0.289088    Uiso  ? H
   C783       1.0     0.424941     0.342659     0.318125    Uiso  ? C
   H491       1.0     0.441290     0.362437     0.357065    Uiso  ? H
   C784       1.0     0.431840     0.336996     0.289627    Uiso  ? C
   H492       1.0     0.463358     0.329313     0.259546    Uiso  ? H
   H493       1.0     0.403564     0.337361     0.325359    Uiso  ? H
   C785       1.0     0.411281     0.318461     0.273276    Uiso  ? C
   H494       1.0     0.390814     0.318436     0.286057    Uiso  ? H
   H495       1.0     0.408635     0.327530     0.252586    Uiso  ? H
   N3         1.0     0.421495     0.289285     0.273202    Uiso  ? N
   C786       1.0     0.432062     0.273888     0.251055    Uiso  ? C
   C787       1.0     0.424489     0.273509     0.296477    Uiso  ? C
   C788       1.0     0.440293     0.248204     0.261915    Uiso  ? C
   H496       1.0     0.435430     0.282539     0.230849    Uiso  ? H
   H497       1.0     0.420409     0.279640     0.318311    Uiso  ? H
   H498       1.0     0.452237     0.232500     0.252917    Uiso  ? H
   N4         1.0     0.434739     0.246917     0.290180    Uiso  ? N
   C789       1.0     0.560319     0.691533     0.315902    Uiso  ? C
   C790       1.0     0.552479     0.664643     0.307729    Uiso  ? C
   C791       1.0     0.544246     0.670627     0.352682    Uiso  ? C
   N5         1.0     0.554073     0.695476     0.343768    Uiso  ? N
   H499       1.0     0.564043     0.710361     0.300533    Uiso  ? H
   H500       1.0     0.548118     0.657000     0.286486    Uiso  ? H
   H501       1.0     0.535449     0.665427     0.373062    Uiso  ? H
   N6         1.0     0.540876     0.652306     0.330722    Uiso  ? N
   C792       1.0     0.521870     0.628289     0.331500    Uiso  ? C
   H502       1.0     0.527102     0.613097     0.315669    Uiso  ? H
   H503       1.0     0.524462     0.617858     0.352565    Uiso  ? H
   C793       1.0     0.491128     0.636834     0.328158    Uiso  ? C
   C794       1.0     0.478213     0.635018     0.301545    Uiso  ? C
   C795       1.0     0.476156     0.649030     0.350928    Uiso  ? C
   C796       1.0     0.450430     0.645141     0.297883    Uiso  ? C
   H504       1.0     0.488136     0.627170     0.282210    Uiso  ? H
   C797       1.0     0.449100     0.661445     0.346292    Uiso  ? C
   H505       1.0     0.485801     0.650786     0.371217    Uiso  ? H
   C798       1.0     0.435880     0.658688     0.319635    Uiso  ? C
   H506       1.0     0.442740     0.645325     0.276998    Uiso  ? H
   H507       1.0     0.438660     0.669836     0.362441    Uiso  ? H
   C799       1.0     0.408011     0.672078     0.314458    Uiso  ? C
   C800       1.0     0.384418     0.654807     0.308931    Uiso  ? C
   C801       1.0     0.404811     0.701810     0.316640    Uiso  ? C
   C802       1.0     0.360556     0.667438     0.297827    Uiso  ? C
   H508       1.0     0.386469     0.631419     0.308546    Uiso  ? H
   C803       1.0     0.379038     0.714000     0.308094    Uiso  ? C
   H509       1.0     0.423749     0.711926     0.323295    Uiso  ? H
   C804       1.0     0.357948     0.697017     0.295431    Uiso  ? C
   H510       1.0     0.343805     0.655034     0.288870    Uiso  ? H
   H511       1.0     0.377532     0.736111     0.303751    Uiso  ? H
   C805       1.0     0.334745     0.710382     0.278898    Uiso  ? C
   H512       1.0     0.316288     0.695463     0.281733    Uiso  ? H
   H513       1.0     0.328574     0.731432     0.288337    Uiso  ? H
   N7         1.0     0.343779     0.712893     0.248949    Uiso  ? N
   C806       1.0     0.354786     0.735899     0.235803    Uiso  ? C
   C807       1.0     0.348742     0.690515     0.232747    Uiso  ? C
   C808       1.0     0.368388     0.726690     0.212271    Uiso  ? C
   H514       1.0     0.354334     0.758734     0.243690    Uiso  ? H
   H515       1.0     0.343635     0.669363     0.238615    Uiso  ? H
   H516       1.0     0.381833     0.738473     0.198277    Uiso  ? H
   N8         1.0     0.365680     0.698493     0.211266    Uiso  ? N
   C809       1.0     0.544568     0.740865     0.719625    Uiso  ? C
   C810       1.0     0.546725     0.712395     0.726856    Uiso  ? C
   C811       1.0     0.577229     0.720587     0.694225    Uiso  ? C
   N9         1.0     0.562932     0.745516     0.698628    Uiso  ? N
   H517       1.0     0.527106     0.753971     0.726702    Uiso  ? H
   H518       1.0     0.535286     0.701004     0.741795    Uiso  ? H
   H519       1.0     0.590520     0.719484     0.676167    Uiso  ? H
   N10        1.0     0.567099     0.700281     0.710429    Uiso  ? N
   C812       1.0     0.574530     0.669482     0.707672    Uiso  ? C
   H520       1.0     0.598755     0.666589     0.703861    Uiso  ? H
   H521       1.0     0.568322     0.658722     0.727711    Uiso  ? H
   C813       1.0     0.557303     0.658794     0.684005    Uiso  ? C
   C814       1.0     0.569156     0.655360     0.656909    Uiso  ? C
   C815       1.0     0.528082     0.655193     0.689152    Uiso  ? C
   C816       1.0     0.550659     0.645842     0.634959    Uiso  ? C
   H522       1.0     0.592000     0.657517     0.653022    Uiso  ? H
   C817       1.0     0.511776     0.645622     0.668200    Uiso  ? C
   H523       1.0     0.518734     0.660251     0.709089    Uiso  ? H
   C818       1.0     0.521633     0.642318     0.640217    Uiso  ? C
   H524       1.0     0.559099     0.646373     0.613233    Uiso  ? H
   H525       1.0     0.491041     0.641048     0.674055    Uiso  ? H
   C819       1.0     0.500875     0.634210     0.617841    Uiso  ? C
   C820       1.0     0.507693     0.613035     0.597667    Uiso  ? C
   C821       1.0     0.474621     0.647675     0.616849    Uiso  ? C
   C822       1.0     0.484913     0.600192     0.583187    Uiso  ? C
   H526       1.0     0.529354     0.603536     0.596339    Uiso  ? H
   C823       1.0     0.452385     0.634401     0.600492    Uiso  ? C
   H527       1.0     0.469421     0.665461     0.630211    Uiso  ? H
   C824       1.0     0.457958     0.610365     0.585591    Uiso  ? C
   H528       1.0     0.488212     0.581065     0.569058    Uiso  ? H
   H529       1.0     0.429426     0.639298     0.601946    Uiso  ? H
   C825       1.0     0.431891     0.592922     0.579541    Uiso  ? C
   H530       1.0     0.414986     0.606630     0.569960    Uiso  ? H
   H531       1.0     0.436755     0.574985     0.564325    Uiso  ? H
   N11        1.0     0.422048     0.579587     0.606686    Uiso  ? N
   C826       1.0     0.394250     0.575537     0.613343    Uiso  ? C
   C827       1.0     0.437192     0.574290     0.630056    Uiso  ? C
   C828       1.0     0.393240     0.566907     0.641608    Uiso  ? C
   H532       1.0     0.374334     0.582126     0.600939    Uiso  ? H
   H533       1.0     0.459742     0.575619     0.632845    Uiso  ? H
   H534       1.0     0.375367     0.565219     0.655170    Uiso  ? H
   N12        1.0     0.420403     0.568139     0.652133    Uiso  ? N
   C829       1.0     0.637846     0.291178     0.768070    Uiso  ? C
   C830       1.0     0.653940     0.283012     0.744278    Uiso  ? C
   C831       1.0     0.654778     0.329177     0.747890    Uiso  ? C
   N13        1.0     0.638806     0.320400     0.770157    Uiso  ? N
   H535       1.0     0.625781     0.277962     0.782932    Uiso  ? H
   H536       1.0     0.656970     0.262396     0.737479    Uiso  ? H
   H537       1.0     0.656860     0.351241     0.741778    Uiso  ? H
   N14        1.0     0.664745     0.306925     0.732792    Uiso  ? N
   C832       1.0     0.677382     0.310121     0.705053    Uiso  ? C
   H538       1.0     0.693483     0.326003     0.706001    Uiso  ? H
   H539       1.0     0.688122     0.289215     0.698589    Uiso  ? H
   C833       1.0     0.653965     0.320147     0.684357    Uiso  ? C
   C834       1.0     0.653293     0.349579     0.675332    Uiso  ? C
   C835       1.0     0.631795     0.302236     0.675830    Uiso  ? C
   C836       1.0     0.629817     0.361022     0.661837    Uiso  ? C
   H540       1.0     0.669877     0.363681     0.680383    Uiso  ? H
   C837       1.0     0.608478     0.313802     0.662548    Uiso  ? C
   H541       1.0     0.631990     0.279748     0.680389    Uiso  ? H
   C838       1.0     0.606858     0.343505     0.656457    Uiso  ? C
   H542       1.0     0.631002     0.383114     0.654387    Uiso  ? H
   H543       1.0     0.589701     0.301551     0.657172    Uiso  ? H
   C839       1.0     0.577195     0.357167     0.653876    Uiso  ? C
   C840       1.0     0.564444     0.370094     0.678055    Uiso  ? C
   C841       1.0     0.562533     0.355557     0.627942    Uiso  ? C
   C842       1.0     0.537116     0.379971     0.676186    Uiso  ? C
   H544       1.0     0.576267     0.372875     0.697688    Uiso  ? H
   C843       1.0     0.534270     0.365794     0.626125    Uiso  ? C
   H545       1.0     0.573641     0.344992     0.610658    Uiso  ? H
   C844       1.0     0.520632     0.375475     0.650998    Uiso  ? C
   H546       1.0     0.527270     0.389533     0.694297    Uiso  ? H
   H547       1.0     0.522038     0.359960     0.606357    Uiso  ? H
   C845       1.0     0.489722     0.383852     0.651227    Uiso  ? C
   H548       1.0     0.486609     0.399076     0.667604    Uiso  ? H
   H549       1.0     0.483695     0.396589     0.632593    Uiso  ? H
   N15        1.0     0.470948     0.359041     0.653590    Uiso  ? N
   C846       1.0     0.463398     0.345581     0.678082    Uiso  ? C
   C847       1.0     0.467162     0.339934     0.633797    Uiso  ? C
   C848       1.0     0.452939     0.319617     0.671686    Uiso  ? C
   H550       1.0     0.465932     0.353824     0.699771    Uiso  ? H
   H551       1.0     0.474428     0.342245     0.612338    Uiso  ? H
   H552       1.0     0.445578     0.302987     0.687087    Uiso  ? H
   N16        1.0     0.455611     0.315813     0.643035    Uiso  ? N
   C849       1.0     0.615667     0.353767     0.435161    Uiso  ? C
   C850       1.0     0.631221     0.377144     0.443003    Uiso  ? C
   C851       1.0     0.643411     0.340542     0.467714    Uiso  ? C
   N17        1.0     0.622971     0.330484     0.451034    Uiso  ? N
   H553       1.0     0.600697     0.354212     0.419841    Uiso  ? H
   H554       1.0     0.630956     0.397853     0.432942    Uiso  ? H
   H555       1.0     0.655950     0.327583     0.481388    Uiso  ? H
   N18        1.0     0.649355     0.367654     0.463103    Uiso  ? N
   C852       1.0     0.667498     0.385247     0.481070    Uiso  ? C
   H556       1.0     0.683522     0.371157     0.491843    Uiso  ? H
   H557       1.0     0.680646     0.401377     0.467103    Uiso  ? H
   C853       1.0     0.649274     0.398648     0.503458    Uiso  ? C
   C854       1.0     0.642371     0.381035     0.527255    Uiso  ? C
   C855       1.0     0.636525     0.425312     0.501123    Uiso  ? C
   C856       1.0     0.622723     0.390687     0.546536    Uiso  ? C
   H558       1.0     0.649968     0.359128     0.528453    Uiso  ? H
   C857       1.0     0.620583     0.436193     0.523115    Uiso  ? C
   H559       1.0     0.639313     0.436225     0.481197    Uiso  ? H
   C858       1.0     0.612999     0.417637     0.546589    Uiso  ? C
   H560       1.0     0.613992     0.376737     0.562662    Uiso  ? H
   H561       1.0     0.613214     0.457362     0.523162    Uiso  ? H
   C859       1.0     0.598076     0.428828     0.572876    Uiso  ? C
   C860       1.0     0.578828     0.450406     0.569985    Uiso  ? C
   C861       1.0     0.605976     0.420476     0.600697    Uiso  ? C
   C862       1.0     0.570874     0.468222     0.591869    Uiso  ? C
   H562       1.0     0.569665     0.456066     0.550012    Uiso  ? H
   C863       1.0     0.600318     0.438835     0.624358    Uiso  ? C
   H563       1.0     0.619900     0.401848     0.604173    Uiso  ? H
   C864       1.0     0.583746     0.463686     0.619213    Uiso  ? C
   H564       1.0     0.558826     0.485222     0.586278    Uiso  ? H
   H565       1.0     0.610586     0.435966     0.643939    Uiso  ? H
   C865       1.0     0.585381     0.486698     0.641139    Uiso  ? C
   H566       1.0     0.564410     0.497303     0.643434    Uiso  ? H
   H567       1.0     0.592827     0.479362     0.662196    Uiso  ? H
   N19        1.0     0.607095     0.506978     0.630090    Uiso  ? N
   C866       1.0     0.601970     0.526162     0.609030    Uiso  ? C
   C867       1.0     0.636151     0.502472     0.628549    Uiso  ? C
   C868       1.0     0.627594     0.532246     0.596333    Uiso  ? C
   H568       1.0     0.582523     0.528872     0.597238    Uiso  ? H
   H569       1.0     0.647535     0.486199     0.639727    Uiso  ? H
   H570       1.0     0.628616     0.544436     0.577713    Uiso  ? H
   N20        1.0     0.649181     0.517565     0.607942    Uiso  ? N
   C869       1.0     0.754178     0.764577     0.518988    Uiso  ? C
   C870       1.0     0.783270     0.764899     0.520369    Uiso  ? C
   C871       1.0     0.768514     0.806919     0.511118    Uiso  ? C
   N21        1.0     0.744586     0.789727     0.512488    Uiso  ? N
   H571       1.0     0.741294     0.745788     0.523997    Uiso  ? H
   H572       1.0     0.794550     0.746710     0.526775    Uiso  ? H
   H573       1.0     0.768019     0.828143     0.503755    Uiso  ? H
   N22        1.0     0.792730     0.792263     0.516759    Uiso  ? N
   C872       1.0     0.822066     0.800837     0.514454    Uiso  ? C
   H574       1.0     0.825497     0.822644     0.523111    Uiso  ? H
   H575       1.0     0.835995     0.788278     0.529414    Uiso  ? H
   C873       1.0     0.831575     0.798767     0.483960    Uiso  ? C
   C874       1.0     0.820257     0.817718     0.463640    Uiso  ? C
   C875       1.0     0.847411     0.776317     0.475503    Uiso  ? C
   C876       1.0     0.826619     0.814172     0.434276    Uiso  ? C
   H576       1.0     0.806583     0.834296     0.470536    Uiso  ? H
   C877       1.0     0.851287     0.770716     0.446456    Uiso  ? C
   H577       1.0     0.856016     0.760870     0.489201    Uiso  ? H
   C878       1.0     0.839131     0.788550     0.425520    Uiso  ? C
   H578       1.0     0.817888     0.827944     0.418931    Uiso  ? H
   H579       1.0     0.863897     0.753418     0.440132    Uiso  ? H
   C879       1.0     0.844902     0.782467     0.394670    Uiso  ? C
   C880       1.0     0.870687     0.771353     0.385557    Uiso  ? C
   C881       1.0     0.825735     0.792136     0.373142    Uiso  ? C
   C882       1.0     0.874906     0.764742     0.357142    Uiso  ? C
   H580       1.0     0.887590     0.767883     0.400296    Uiso  ? H
   C883       1.0     0.829987     0.784115     0.345045    Uiso  ? C
   H581       1.0     0.806241     0.801603     0.378493    Uiso  ? H
   C884       1.0     0.855073     0.770311     0.335996    Uiso  ? C
   H582       1.0     0.894599     0.756266     0.350593    Uiso  ? H
   H583       1.0     0.813950     0.790199     0.328542    Uiso  ? H
   C885       1.0     0.858792     0.758512     0.305557    Uiso  ? C
   H584       1.0     0.848520     0.771217     0.289154    Uiso  ? H
   H585       1.0     0.882854     0.757191     0.300037    Uiso  ? H
   N23        1.0     0.848117     0.729606     0.305606    Uiso  ? N
   C886       1.0     0.820717     0.720869     0.304535    Uiso  ? C
   C887       1.0     0.862162     0.707950     0.319100    Uiso  ? C
   C888       1.0     0.817052     0.695009     0.316346    Uiso  ? C
   H586       1.0     0.803717     0.735080     0.297083    Uiso  ? H
   H587       1.0     0.885289     0.709254     0.321982    Uiso  ? H
   H588       1.0     0.797709     0.683417     0.318714    Uiso  ? H
   N24        1.0     0.843684     0.687071     0.326504    Uiso  ? N
   C889       1.0     0.166657     0.308068     0.707125    Uiso  ? C
   C890       1.0     0.167594     0.279907     0.715545    Uiso  ? C
   C891       1.0     0.145961     0.282159     0.675853    Uiso  ? C
   N25        1.0     0.152226     0.309022     0.682215    Uiso  ? N
   H589       1.0     0.173076     0.326257     0.719167    Uiso  ? H
   H590       1.0     0.177844     0.272039     0.734432    Uiso  ? H
   H591       1.0     0.134278     0.277241     0.656139    Uiso  ? H
   N26        1.0     0.156011     0.263917     0.694793    Uiso  ? N
   C892       1.0     0.155542     0.232549     0.694955    Uiso  ? C
   H592       1.0     0.172657     0.224679     0.708256    Uiso  ? H
   H593       1.0     0.134840     0.227608     0.706519    Uiso  ? H
   C893       1.0     0.156157     0.221952     0.665192    Uiso  ? C
   C894       1.0     0.130789     0.218960     0.650920    Uiso  ? C
   C895       1.0     0.181527     0.223994     0.649976    Uiso  ? C
   C896       1.0     0.130649     0.215849     0.622439    Uiso  ? C
   H594       1.0     0.110685     0.222923     0.661831    Uiso  ? H
   C897       1.0     0.181031     0.220654     0.621045    Uiso  ? C
   H595       1.0     0.202805     0.228895     0.660192    Uiso  ? H
   C898       1.0     0.155877     0.214358     0.606832    Uiso  ? C
   H596       1.0     0.110787     0.214619     0.611171    Uiso  ? H
   H597       1.0     0.201248     0.220149     0.610580    Uiso  ? H
   C899       1.0     0.157725     0.207531     0.577068    Uiso  ? C
   C900       1.0     0.176993     0.186398     0.568802    Uiso  ? C
   C901       1.0     0.147414     0.226700     0.555874    Uiso  ? C
   C902       1.0     0.183767     0.183616     0.540176    Uiso  ? C
   H598       1.0     0.186225     0.171795     0.584024    Uiso  ? H
   C903       1.0     0.153778     0.222754     0.527136    Uiso  ? C
   H599       1.0     0.134649     0.245095     0.559275    Uiso  ? H
   C904       1.0     0.173197     0.201731     0.518768    Uiso  ? C
   H600       1.0     0.198652     0.166769     0.533746    Uiso  ? H
   H601       1.0     0.146478     0.238038     0.510843    Uiso  ? H
   C905       1.0     0.183500     0.201067     0.489148    Uiso  ? C
   H602       1.0     0.182388     0.178437     0.480584    Uiso  ? H
   H603       1.0     0.168996     0.213991     0.477004    Uiso  ? H
   N27        1.0     0.212683     0.212248     0.487956    Uiso  ? N
   C906       1.0     0.222023     0.236195     0.477386    Uiso  ? C
   C907       1.0     0.236134     0.197572     0.495173    Uiso  ? C
   C908       1.0     0.251329     0.235715     0.477594    Uiso  ? C
   H604       1.0     0.209718     0.252524     0.469001    Uiso  ? H
   H605       1.0     0.235269     0.175629     0.502171    Uiso  ? H
   H606       1.0     0.264119     0.253479     0.468131    Uiso  ? H
   N28        1.0     0.259714     0.210729     0.487409    Uiso  ? N
   C909       1.0     0.363218     0.487434     0.383907    Uiso  ? C
   C910       1.0     0.392174     0.481665     0.385237    Uiso  ? C
   C911       1.0     0.370237     0.459385     0.418186    Uiso  ? C
   N29        1.0     0.349015     0.473384     0.405002    Uiso  ? N
   H607       1.0     0.354637     0.502595     0.370517    Uiso  ? H
   H608       1.0     0.408219     0.494517     0.374375    Uiso  ? H
   H609       1.0     0.368984     0.449337     0.438774    Uiso  ? H
   N30        1.0     0.395913     0.464095     0.407487    Uiso  ? N
   C912       1.0     0.422778     0.457271     0.422776    Uiso  ? C
   H610       1.0     0.423484     0.434702     0.431144    Uiso  ? H
   H611       1.0     0.439256     0.459771     0.408963    Uiso  ? H
   C913       1.0     0.426930     0.477678     0.447885    Uiso  ? C
   C914       1.0     0.412993     0.472716     0.473410    Uiso  ? C
   C915       1.0     0.440908     0.503453     0.444379    Uiso  ? C
   C916       1.0     0.406084     0.495475     0.491536    Uiso  ? C
   H612       1.0     0.406779     0.452073     0.479291    Uiso  ? H
   C917       1.0     0.433248     0.526451     0.459693    Uiso  ? C
   H613       1.0     0.453380     0.507122     0.425278    Uiso  ? H
   C918       1.0     0.411305     0.522805     0.480960    Uiso  ? C
   H614       1.0     0.392850     0.490280     0.510592    Uiso  ? H
   H615       1.0     0.438991     0.547043     0.452553    Uiso  ? H
   C919       1.0     0.396110     0.547967     0.492458    Uiso  ? C
   C920       1.0     0.390887     0.572031     0.476211    Uiso  ? C
   C921       1.0     0.379975     0.545588     0.517616    Uiso  ? C
   C922       1.0     0.370409     0.592233     0.482289    Uiso  ? C
   H616       1.0     0.401316     0.576094     0.455698    Uiso  ? H
   C923       1.0     0.361691     0.566842     0.527055    Uiso  ? C
   H617       1.0     0.383587     0.528105     0.532754    Uiso  ? H
   C924       1.0     0.356821     0.590589     0.509150    Uiso  ? C
   H618       1.0     0.365370     0.608480     0.465657    Uiso  ? H
   H619       1.0     0.353564     0.563896     0.547845    Uiso  ? H
   C925       1.0     0.336950     0.612963     0.518797    Uiso  ? C
   H620       1.0     0.326423     0.621560     0.500275    Uiso  ? H
   H621       1.0     0.318982     0.604109     0.532701    Uiso  ? H
   N31        1.0     0.355027     0.635495     0.533250    Uiso  ? N
   C926       1.0     0.355992     0.639678     0.560845    Uiso  ? C
   C927       1.0     0.372884     0.653765     0.520549    Uiso  ? C
   C928       1.0     0.374252     0.662509     0.565368    Uiso  ? C
   H622       1.0     0.342884     0.628482     0.577318    Uiso  ? H
   H623       1.0     0.374557     0.655549     0.498523    Uiso  ? H
   H624       1.0     0.377753     0.672264     0.584741    Uiso  ? H
   N32        1.0     0.385114     0.670750     0.540310    Uiso  ? N
   C929       1.0     0.641485     0.707012     0.234403    Uiso  ? C
   C930       1.0     0.652483     0.721327     0.257578    Uiso  ? C
   C931       1.0     0.624663     0.687319     0.272243    Uiso  ? C
   N33        1.0     0.624294     0.686238     0.243976    Uiso  ? N
   H625       1.0     0.645938     0.709330     0.211056    Uiso  ? H
   H626       1.0     0.668562     0.736429     0.255827    Uiso  ? H
   H627       1.0     0.613144     0.672101     0.284707    Uiso  ? H
   N34        1.0     0.642193     0.708454     0.281598    Uiso  ? N
   C932       1.0     0.651957     0.715559     0.309506    Uiso  ? C
   H628       1.0     0.672462     0.728315     0.308936    Uiso  ? H
   H629       1.0     0.637095     0.728272     0.320557    Uiso  ? H
   C933       1.0     0.659157     0.687387     0.323878    Uiso  ? C
   C934       1.0     0.638319     0.672852     0.339595    Uiso  ? C
   C935       1.0     0.682835     0.671993     0.313837    Uiso  ? C
   C936       1.0     0.639405     0.643790     0.342218    Uiso  ? C
   H630       1.0     0.619832     0.684115     0.344867    Uiso  ? H
   C937       1.0     0.683732     0.641675     0.316125    Uiso  ? C
   H631       1.0     0.699567     0.683320     0.301742    Uiso  ? H
   C938       1.0     0.660792     0.627148     0.328287    Uiso  ? C
   H632       1.0     0.621716     0.631241     0.351129    Uiso  ? H
   H633       1.0     0.702352     0.630262     0.309487    Uiso  ? H
   C939       1.0     0.658506     0.596353     0.327736    Uiso  ? C
   C940       1.0     0.660989     0.583379     0.301121    Uiso  ? C
   C941       1.0     0.649614     0.580107     0.351535    Uiso  ? C
   C942       1.0     0.655439     0.554385     0.299053    Uiso  ? C
   H634       1.0     0.668223     0.596396     0.281886    Uiso  ? H
   C943       1.0     0.641775     0.552569     0.348256    Uiso  ? C
   H635       1.0     0.650526     0.589525     0.371276    Uiso  ? H
   C944       1.0     0.643799     0.539374     0.321230    Uiso  ? C
   H636       1.0     0.660215     0.542977     0.280268    Uiso  ? H
   H637       1.0     0.634404     0.539480     0.366030    Uiso  ? H
   C945       1.0     0.634247     0.508755     0.316986    Uiso  ? C
   H638       1.0     0.615044     0.506007     0.330597    Uiso  ? H
   H639       1.0     0.627058     0.506741     0.294142    Uiso  ? H
   N35        1.0     0.655838     0.488874     0.325096    Uiso  ? N
   C946       1.0     0.668155     0.469921     0.308406    Uiso  ? C
   C947       1.0     0.671805     0.490907     0.348385    Uiso  ? C
   C948       1.0     0.690872     0.458925     0.322739    Uiso  ? C
   H640       1.0     0.661401     0.463701     0.287313    Uiso  ? H
   H641       1.0     0.668329     0.507186     0.363907    Uiso  ? H
   H642       1.0     0.705626     0.444428     0.313504    Uiso  ? H
   N36        1.0     0.693864     0.472338     0.347853    Uiso  ? N
   C949       1.0     0.295813     0.442281     0.269473    Uiso  ? C
   C950       1.0     0.281640     0.436316     0.294101    Uiso  ? C
   C951       1.0     0.326758     0.436795     0.301946    Uiso  ? C
   N37        1.0     0.323484     0.445038     0.274591    Uiso  ? N
   H643       1.0     0.286276     0.447331     0.249388    Uiso  ? H
   H644       1.0     0.257869     0.435834     0.296574    Uiso  ? H
   H645       1.0     0.348303     0.436490     0.311686    Uiso  ? H
   N38        1.0     0.302362     0.429326     0.314201    Uiso  ? N
   C952       1.0     0.295440     0.423059     0.343902    Uiso  ? C
   H646       1.0     0.314193     0.424260     0.357846    Uiso  ? H
   H647       1.0     0.279061     0.439544     0.352977    Uiso  ? H
   C953       1.0     0.286376     0.392464     0.346470    Uiso  ? C
   C954       1.0     0.308244     0.371437     0.348625    Uiso  ? C
   C955       1.0     0.258011     0.383693     0.347953    Uiso  ? C
   C956       1.0     0.301719     0.342786     0.352194    Uiso  ? C
   H648       1.0     0.328423     0.379521     0.351325    Uiso  ? H
   C957       1.0     0.250826     0.354893     0.350883    Uiso  ? C
   H649       1.0     0.241665     0.399891     0.344367    Uiso  ? H
   C958       1.0     0.273019     0.334420     0.352983    Uiso  ? C
   H650       1.0     0.318123     0.327339     0.356397    Uiso  ? H
   H651       1.0     0.229199     0.347958     0.352466    Uiso  ? H
   C959       1.0     0.267416     0.302669     0.356730    Uiso  ? C
   C960       1.0     0.243452     0.289259     0.344222    Uiso  ? C
   C961       1.0     0.282904     0.285586     0.375675    Uiso  ? C
   C962       1.0     0.235534     0.261522     0.350915    Uiso  ? C
   H652       1.0     0.231445     0.302792     0.330416    Uiso  ? H
   C963       1.0     0.276639     0.256812     0.381757    Uiso  ? C
   H653       1.0     0.300612     0.295655     0.387922    Uiso  ? H
   C964       1.0     0.251248     0.245895     0.370937    Uiso  ? C
   H654       1.0     0.216831     0.254624     0.342549    Uiso  ? H
   H655       1.0     0.289605     0.244970     0.396627    Uiso  ? H
   C965       1.0     0.235909     0.221738     0.383969    Uiso  ? C
   H656       1.0     0.226820     0.208787     0.366676    Uiso  ? H
   H657       1.0     0.250803     0.208547     0.397378    Uiso  ? H
   N39        1.0     0.212426     0.232121     0.402684    Uiso  ? N
   C966       1.0     0.187046     0.221729     0.406192    Uiso  ? C
   C967       1.0     0.210388     0.257907     0.414327    Uiso  ? C
   C968       1.0     0.169475     0.241314     0.420127    Uiso  ? C
   H658       1.0     0.180773     0.201082     0.397138    Uiso  ? H
   H659       1.0     0.227195     0.273557     0.415234    Uiso  ? H
   H660       1.0     0.148167     0.237898     0.428039    Uiso  ? H
   N40        1.0     0.184547     0.263987     0.425219    Uiso  ? N
   C969       1.0     0.295295     0.517022     0.694429    Uiso  ? C
   C970       1.0     0.323081     0.513058     0.704561    Uiso  ? C
   C971       1.0     0.325433     0.516850     0.659579    Uiso  ? C
   N41        1.0     0.297537     0.519715     0.665462    Uiso  ? N
   H661       1.0     0.275602     0.514814     0.705463    Uiso  ? H
   H662       1.0     0.326383     0.507235     0.727440    Uiso  ? H
   H663       1.0     0.333869     0.516104     0.637420    Uiso  ? H
   N42        1.0     0.341686     0.515257     0.683178    Uiso  ? N
   C972       1.0     0.368982     0.502115     0.684236    Uiso  ? C
   H664       1.0     0.383233     0.512267     0.668653    Uiso  ? H
   H665       1.0     0.377651     0.502111     0.707013    Uiso  ? H
   C973       1.0     0.365669     0.471083     0.674946    Uiso  ? C
   C974       1.0     0.350215     0.453286     0.692405    Uiso  ? C
   C975       1.0     0.371601     0.461639     0.647756    Uiso  ? C
   C976       1.0     0.344218     0.424618     0.685140    Uiso  ? C
   H666       1.0     0.340687     0.459453     0.712762    Uiso  ? H
   C977       1.0     0.368004     0.433171     0.640448    Uiso  ? C
   H667       1.0     0.378737     0.476423     0.632343    Uiso  ? H
   C978       1.0     0.357680     0.413149     0.660183    Uiso  ? C
   H668       1.0     0.336263     0.408590     0.701259    Uiso  ? H
   H669       1.0     0.375679     0.426985     0.619962    Uiso  ? H
   C979       1.0     0.355789     0.382636     0.651177    Uiso  ? C
   C980       1.0     0.380257     0.368780     0.641754    Uiso  ? C
   C981       1.0     0.332414     0.366474     0.659939    Uiso  ? C
   C982       1.0     0.382944     0.339664     0.644282    Uiso  ? C
   H670       1.0     0.399781     0.380327     0.637207    Uiso  ? H
   C983       1.0     0.334429     0.337414     0.660120    Uiso  ? C
   H671       1.0     0.312526     0.376963     0.667720    Uiso  ? H
   C984       1.0     0.360635     0.324134     0.655195    Uiso  ? C
   H672       1.0     0.403564     0.329928     0.638681    Uiso  ? H
   H673       1.0     0.318354     0.326535     0.672047    Uiso  ? H
   C985       1.0     0.366316     0.295596     0.669637    Uiso  ? C
   H674       1.0     0.348059     0.281254     0.667646    Uiso  ? H
   H675       1.0     0.385655     0.282984     0.663161    Uiso  ? H
   N43        1.0     0.368430     0.302151     0.699535    Uiso  ? N
   C986       1.0     0.349181     0.294536     0.719896    Uiso  ? C
   C987       1.0     0.384770     0.321882     0.710037    Uiso  ? C
   C988       1.0     0.355248     0.310891     0.743402    Uiso  ? C
   H676       1.0     0.331710     0.279273     0.715072    Uiso  ? H
   H677       1.0     0.399997     0.333625     0.698808    Uiso  ? H
   H678       1.0     0.347357     0.310320     0.764353    Uiso  ? H
   N44        1.0     0.378143     0.327027     0.737441    Uiso  ? N
   C989       1.0     0.669218     0.554645     0.679645    Uiso  ? C
   C990       1.0     0.691686     0.563268     0.663343    Uiso  ? C
   C991       1.0     0.698761     0.578126     0.705486    Uiso  ? C
   N45        1.0     0.675399     0.561682     0.706578    Uiso  ? N
   H679       1.0     0.648960     0.546631     0.672225    Uiso  ? H
   H680       1.0     0.693716     0.561470     0.640236    Uiso  ? H
   H681       1.0     0.706928     0.588280     0.724572    Uiso  ? H
   N46        1.0     0.710603     0.577252     0.679679    Uiso  ? N
   C992       1.0     0.737008     0.591453     0.669292    Uiso  ? C
   H682       1.0     0.754767     0.588409     0.684578    Uiso  ? H
   H683       1.0     0.744329     0.579791     0.649098    Uiso  ? H
   C993       1.0     0.733700     0.622756     0.662024    Uiso  ? C
   C994       1.0     0.758625     0.638668     0.654812    Uiso  ? C
   C995       1.0     0.708065     0.638339     0.665757    Uiso  ? C
   C996       1.0     0.757284     0.668010     0.651274    Uiso  ? C
   H684       1.0     0.778829     0.628224     0.653656    Uiso  ? H
   C997       1.0     0.706896     0.667639     0.660932    Uiso  ? C
   H685       1.0     0.689379     0.627424     0.671126    Uiso  ? H
   C998       1.0     0.731488     0.682588     0.653673    Uiso  ? C
   H686       1.0     0.776451     0.679125     0.646310    Uiso  ? H
   H687       1.0     0.686779     0.678192     0.663973    Uiso  ? H
   C999       1.0     0.730578     0.713387     0.648761    Uiso  ? C
   C1000      1.0     0.751071     0.730185     0.661443    Uiso  ? C
   C1001      1.0     0.713178     0.724881     0.627798    Uiso  ? C
   C1002      1.0     0.756773     0.757748     0.650464    Uiso  ? C
   H688       1.0     0.766204     0.721902     0.678523    Uiso  ? H
   C1003      1.0     0.717973     0.752480     0.617559    Uiso  ? C
   H689       1.0     0.700174     0.711527     0.614032    Uiso  ? H
   C1004      1.0     0.741916     0.766543     0.627087    Uiso  ? C
   H690       1.0     0.776345     0.768138     0.658412    Uiso  ? H
   H691       1.0     0.706839     0.759101     0.599113    Uiso  ? H
   C1005      1.0     0.757776     0.784338     0.605585    Uiso  ? C
   H692       1.0     0.742628     0.791854     0.588049    Uiso  ? H
   H693       1.0     0.765570     0.802733     0.616895    Uiso  ? H
   N47        1.0     0.782305     0.769478     0.596564    Uiso  ? N
   C1006      1.0     0.807836     0.779696     0.588906    Uiso  ? C
   C1007      1.0     0.783405     0.741317     0.593402    Uiso  ? C
   C1008      1.0     0.824721     0.756573     0.583700    Uiso  ? C
   H694       1.0     0.812945     0.801825     0.590991    Uiso  ? H
   H695       1.0     0.764879     0.728510     0.596233    Uiso  ? H
   H696       1.0     0.848257     0.756862     0.579454    Uiso  ? H
   N48        1.0     0.809838     0.732389     0.584845    Uiso  ? N
   C1009      1.0     0.510851     0.779844     0.815856    Uiso  ? C
   C1010      1.0     0.525412     0.804864     0.811129    Uiso  ? C
   C1011      1.0     0.554319     0.769366     0.804880    Uiso  ? C
   N49        1.0     0.529566     0.758535     0.812926    Uiso  ? N
   H697       1.0     0.489309     0.778809     0.823527    Uiso  ? H
   H698       1.0     0.517247     0.826033     0.815065    Uiso  ? H
   H699       1.0     0.572261     0.756758     0.801635    Uiso  ? H
   N50        1.0     0.553176     0.798163     0.803346    Uiso  ? N
   C1012      1.0     0.575338     0.818687     0.795027    Uiso  ? C
   H700       1.0     0.566853     0.833227     0.778137    Uiso  ? H
   H701       1.0     0.579838     0.832372     0.813348    Uiso  ? H
   C1013      1.0     0.602487     0.803026     0.785662    Uiso  ? C
   C1014      1.0     0.622778     0.793936     0.805592    Uiso  ? C
   C1015      1.0     0.603318     0.791739     0.758714    Uiso  ? C
   C1016      1.0     0.643455     0.774004     0.798006    Uiso  ? C
   H702       1.0     0.621353     0.800406     0.828576    Uiso  ? H
   C1017      1.0     0.625270     0.772986     0.750182    Uiso  ? C
   H703       1.0     0.584832     0.795821     0.746375    Uiso  ? H
   C1018      1.0     0.644821     0.763269     0.770187    Uiso  ? C
   H704       1.0     0.657643     0.767803     0.814472    Uiso  ? H
   H705       1.0     0.621381     0.762327     0.730782    Uiso  ? H
   C1019      1.0     0.666043     0.739890     0.762597    Uiso  ? C
   C1020      1.0     0.675064     0.719764     0.783528    Uiso  ? C
   C1021      1.0     0.675609     0.737546     0.733880    Uiso  ? C
   C1022      1.0     0.693266     0.697830     0.775828    Uiso  ? C
   H706       1.0     0.668011     0.720593     0.806360    Uiso  ? H
   C1023      1.0     0.692552     0.714219     0.725858    Uiso  ? C
   H707       1.0     0.669763     0.753501     0.717642    Uiso  ? H
   C1024      1.0     0.702419     0.694706     0.747548    Uiso  ? C
   H708       1.0     0.700939     0.682170     0.792497    Uiso  ? H
   H709       1.0     0.698278     0.711555     0.702863    Uiso  ? H
   C1025      1.0     0.723480     0.672725     0.739299    Uiso  ? C
   H710       1.0     0.721109     0.654747     0.756604    Uiso  ? H
   H711       1.0     0.720507     0.661294     0.718268    Uiso  ? H
   N51        1.0     0.751285     0.684043     0.741226    Uiso  ? N
   C1026      1.0     0.773457     0.678652     0.723224    Uiso  ? C
   C1027      1.0     0.761706     0.703382     0.759585    Uiso  ? C
   C1028      1.0     0.794734     0.697573     0.728500    Uiso  ? C
   H712       1.0     0.771652     0.664288     0.705609    Uiso  ? H
   H713       1.0     0.749822     0.710435     0.778530    Uiso  ? H
   H714       1.0     0.812158     0.702487     0.714544    Uiso  ? H
   N52        1.0     0.788111     0.712185     0.751662    Uiso  ? N
   C1029      1.0     0.780807     0.465546     0.152845    Uiso  ? C
   C1030      1.0     0.809602     0.467775     0.144860    Uiso  ? C
   C1031      1.0     0.784128     0.494737     0.118300    Uiso  ? C
   N53        1.0     0.764633     0.481260     0.134390    Uiso  ? N
   H715       1.0     0.771640     0.451466     0.170714    Uiso  ? H
   H716       1.0     0.827317     0.454611     0.151566    Uiso  ? H
   H717       1.0     0.777821     0.510585     0.102058    Uiso  ? H
   N54        1.0     0.810807     0.486564     0.123490    Uiso  ? N
   C1032      1.0     0.836472     0.489569     0.105926    Uiso  ? C
   H718       1.0     0.842111     0.512611     0.102754    Uiso  ? H
   H719       1.0     0.855762     0.482257     0.119200    Uiso  ? H
   C1033      1.0     0.833299     0.473002     0.879431    Uiso  ? C
   C1034      1.0     0.820530     0.485678     0.856014    Uiso  ? C
   C1035      1.0     0.838537     0.443789     0.880339    Uiso  ? C
   C1036      1.0     0.812336     0.468879     0.833242    Uiso  ? C
   H720       1.0     0.813138     0.508378     0.855582    Uiso  ? H
   C1037      1.0     0.828420     0.427286     0.857834    Uiso  ? C
   H721       1.0     0.850172     0.434891     0.896855    Uiso  ? H
   C1038      1.0     0.815171     0.439319     0.834271    Uiso  ? C
   H722       1.0     0.800988     0.477521     0.815808    Uiso  ? H
   H723       1.0     0.830508     0.403729     0.858650    Uiso  ? H
   C1039      1.0     0.803745     0.422024     0.811178    Uiso  ? C
   C1040      1.0     0.820087     0.399044     0.800869    Uiso  ? C
   C1041      1.0     0.776025     0.423876     0.802653    Uiso  ? C
   C1042      1.0     0.808417     0.379390     0.781530    Uiso  ? C
   H724       1.0     0.840052     0.394483     0.808994    Uiso  ? H
   C1043      1.0     0.763371     0.404172     0.784020    Uiso  ? C
   H725       1.0     0.764349     0.439826     0.812523    Uiso  ? H
   C1044      1.0     0.778939     0.382253     0.772322    Uiso  ? C
   H726       1.0     0.822778     0.364341     0.771563    Uiso  ? H
   H727       1.0     0.741055     0.407396     0.776150    Uiso  ? H
   C1045      1.0     0.768976     0.364057     0.747642    Uiso  ? C
   H728       1.0     0.750339     0.375201     0.738495    Uiso  ? H
   H729       1.0     0.788016     0.363179     0.733666    Uiso  ? H
   N55        1.0     0.762277     0.335856     0.757706    Uiso  ? N
   C1046      1.0     0.737893     0.325146     0.766976    Uiso  ? C
   C1047      1.0     0.782122     0.313940     0.762120    Uiso  ? C
   C1048      1.0     0.743101     0.297267     0.778432    Uiso  ? C
   H730       1.0     0.719215     0.337469     0.770049    Uiso  ? H
   H731       1.0     0.805342     0.317259     0.757202    Uiso  ? H
   H732       1.0     0.729995     0.284010     0.791152    Uiso  ? H
   N56        1.0     0.771218     0.291009     0.775597    Uiso  ? N
   C1049      1.0     0.243925     0.706139     0.250883    Uiso  ? C
   C1050      1.0     0.251634     0.680302     0.261230    Uiso  ? C
   C1051      1.0     0.217331     0.673929     0.232840    Uiso  ? C
   N57        1.0     0.222387     0.701728     0.233114    Uiso  ? N
   H733       1.0     0.254279     0.725908     0.254925    Uiso  ? H
   H734       1.0     0.271806     0.674319     0.271238    Uiso  ? H
   H735       1.0     0.201897     0.662558     0.219134    Uiso  ? H
   N58        1.0     0.235631     0.660028     0.250442    Uiso  ? N
   C1052      1.0     0.235292     0.629524     0.258263    Uiso  ? C
   H736       1.0     0.256232     0.621694     0.267047    Uiso  ? H
   H737       1.0     0.220199     0.625288     0.275897    Uiso  ? H
   C1053      1.0     0.225810     0.611400     0.232751    Uiso  ? C
   C1054      1.0     0.198421     0.603155     0.228111    Uiso  ? C
   C1055      1.0     0.245878     0.604054     0.211347    Uiso  ? C
   C1056      1.0     0.189607     0.588923     0.203647    Uiso  ? C
   H738       1.0     0.183735     0.609856     0.244207    Uiso  ? H
   C1057      1.0     0.237567     0.590070     0.187024    Uiso  ? C
   H739       1.0     0.267175     0.612297     0.211864    Uiso  ? H
   C1058      1.0     0.209061     0.584051     0.181682    Uiso  ? C
   H740       1.0     0.167253     0.585871     0.201585    Uiso  ? H
   H741       1.0     0.251838     0.589258     0.169603    Uiso  ? H
   C1059      1.0     0.197946     0.575674     0.153405    Uiso  ? C
   C1060      1.0     0.180480     0.551704     0.151290    Uiso  ? C
   C1061      1.0     0.203197     0.593130     0.128658    Uiso  ? C
   C1062      1.0     0.170930     0.542820     0.124383    Uiso  ? C
   H742       1.0     0.175999     0.538000     0.169946    Uiso  ? H
   C1063      1.0     0.193605     0.584893     0.102738    Uiso  ? C
   H743       1.0     0.217499     0.610702     0.130017    Uiso  ? H
   C1064      1.0     0.178527     0.559979     0.100052    Uiso  ? C
   H744       1.0     0.159616     0.523231     0.122109    Uiso  ? H
   H745       1.0     0.200457     0.596288     0.884362    Uiso  ? H
   C1065      1.0     0.172311     0.547666     0.871054    Uiso  ? C
   H746       1.0     0.162793     0.527738     0.873784    Uiso  ? H
   H747       1.0     0.157771     0.562969     0.859759    Uiso  ? H
   N59        1.0     0.198213     0.545679     0.854059    Uiso  ? N
   C1066      1.0     0.202412     0.552181     0.826742    Uiso  ? C
   C1067      1.0     0.223021     0.536136     0.863350    Uiso  ? C
   C1068      1.0     0.229596     0.546593     0.818857    Uiso  ? C
   H748       1.0     0.185735     0.563809     0.814374    Uiso  ? H
   H749       1.0     0.227551     0.531018     0.885443    Uiso  ? H
   H750       1.0     0.240710     0.549751     0.798017    Uiso  ? H
   N60        1.0     0.241336     0.536015     0.842039    Uiso  ? N
   C1069      1.0     0.195408     0.304427     0.267132    Uiso  ? C
   C1070      1.0     0.218865     0.320463     0.272101    Uiso  ? C
   C1071      1.0     0.232437     0.278202     0.268453    Uiso  ? C
   N61        1.0     0.203823     0.277686     0.263427    Uiso  ? N
   H751       1.0     0.175524     0.312386     0.259209    Uiso  ? H
   H752       1.0     0.220292     0.343021     0.273081    Uiso  ? H
   H753       1.0     0.245601     0.260549     0.264751    Uiso  ? H
   N62        1.0     0.242110     0.305160     0.273957    Uiso  ? N
   C1072      1.0     0.270782     0.315049     0.277034    Uiso  ? C
   H754       1.0     0.273238     0.338210     0.274343    Uiso  ? H
   H755       1.0     0.275448     0.312161     0.300758    Uiso  ? H
   C1073      1.0     0.291548     0.299148     0.261385    Uiso  ? C
   C1074      1.0     0.284726     0.289348     0.233065    Uiso  ? C
   C1075      1.0     0.317542     0.291912     0.273855    Uiso  ? C
   C1076      1.0     0.303479     0.270046     0.220139    Uiso  ? C
   H756       1.0     0.263911     0.293501     0.223231    Uiso  ? H
   C1077      1.0     0.336136     0.273954     0.260723    Uiso  ? C
   H757       1.0     0.325683     0.299839     0.295263    Uiso  ? H
   C1078      1.0     0.330637     0.261412     0.233631    Uiso  ? C
   H758       1.0     0.296373     0.262875     0.200608    Uiso  ? H
   H759       1.0     0.354179     0.268135     0.272120    Uiso  ? H
   C1079      1.0     0.352888     0.244338     0.219056    Uiso  ? C
   C1080      1.0     0.368632     0.225725     0.233996    Uiso  ? C
   C1081      1.0     0.358359     0.248404     0.190458    Uiso  ? C
   C1082      1.0     0.390836     0.211102     0.221138    Uiso  ? C
   H760       1.0     0.367175     0.221784     0.256160    Uiso  ? H
   C1083      1.0     0.378909     0.232577     0.176026    Uiso  ? C
   H761       1.0     0.345450     0.263401     0.176911    Uiso  ? H
   C1084      1.0     0.394717     0.213030     0.191641    Uiso  ? C
   H762       1.0     0.403036     0.197878     0.235811    Uiso  ? H
   H763       1.0     0.384505     0.234322     0.152855    Uiso  ? H
   C1085      1.0     0.418163     0.196453     0.177984    Uiso  ? C
   H764       1.0     0.423751     0.175296     0.189154    Uiso  ? H
   H765       1.0     0.411362     0.193121     0.155604    Uiso  ? H
   N63        1.0     0.443675     0.214260     0.179419    Uiso  ? N
   C1086      1.0     0.464026     0.215028     0.199522    Uiso  ? C
   C1087      1.0     0.446218     0.238086     0.165130    Uiso  ? C
   C1088      1.0     0.481405     0.238059     0.195244    Uiso  ? C
   H766       1.0     0.467754     0.198136     0.216504    Uiso  ? H
   H767       1.0     0.429791     0.244883     0.150521    Uiso  ? H
   H768       1.0     0.500740     0.242332     0.204830    Uiso  ? H
   N64        1.0     0.469580     0.252688     0.172688    Uiso  ? N
   C1089      1.0     0.677974     0.199697     0.695016    Uiso  ? C
   C1090      1.0     0.702574     0.213486     0.703643    Uiso  ? C
   C1091      1.0     0.704580     0.205695     0.658675    Uiso  ? C
   N65        1.0     0.679906     0.194495     0.667135    Uiso  ? N
   H769       1.0     0.660760     0.193719     0.707615    Uiso  ? H
   H770       1.0     0.708362     0.222891     0.725037    Uiso  ? H
   H771       1.0     0.710686     0.208617     0.636775    Uiso  ? H
   N66        1.0     0.717992     0.216315     0.680103    Uiso  ? N
   C1092      1.0     0.745069     0.231457     0.678867    Uiso  ? C
   H772       1.0     0.742696     0.254089     0.670146    Uiso  ? H
   H773       1.0     0.754865     0.233771     0.700019    Uiso  ? H
   C1093      1.0     0.764614     0.214686     0.660520    Uiso  ? C
   C1094      1.0     0.771444     0.224172     0.633606    Uiso  ? C
   C1095      1.0     0.776674     0.189471     0.670189    Uiso  ? C
   C1096      1.0     0.789284     0.209289     0.616554    Uiso  ? C
   H774       1.0     0.762065     0.243959     0.627221    Uiso  ? H
   C1097      1.0     0.795330     0.174145     0.653399    Uiso  ? C
   H775       1.0     0.774254     0.182138     0.691580    Uiso  ? H
   C1098      1.0     0.802142     0.183497     0.625421    Uiso  ? C
   H776       1.0     0.793148     0.218523     0.596466    Uiso  ? H
   H777       1.0     0.806801     0.155924     0.662418    Uiso  ? H
   C1099      1.0     0.824127     0.169002     0.608415    Uiso  ? C
   C1100      1.0     0.847500     0.183972     0.593913    Uiso  ? C
   C1101      1.0     0.824696     0.138964     0.605751    Uiso  ? C
   C1102      1.0     0.870200     0.168124     0.581670    Uiso  ? C
   H778       1.0     0.847915     0.207311     0.593054    Uiso  ? H
   C1103      1.0     0.847576     0.124497     0.593427    Uiso  ? C
   H779       1.0     0.806311     0.126047     0.613184    Uiso  ? H
   C1104      1.0     0.870940     0.139348     0.583184    Uiso  ? C
   H780       1.0     0.886548     0.180568     0.572687    Uiso  ? H
   H781       1.0     0.847205     0.896611     0.594876    Uiso  ? H
   C1105      1.0     0.103367     0.123496     0.576118    Uiso  ? C
   H782       1.0     0.891392     0.895779     0.571709    Uiso  ? H
   H783       1.0     0.115398     0.131989     0.557360    Uiso  ? H
   N67        1.0     0.120886     0.122607     0.600042    Uiso  ? N
   C1106      1.0     0.149454     0.122242     0.599753    Uiso  ? C
   C1107      1.0     0.112825     0.121678     0.627847    Uiso  ? C
   C1108      1.0     0.157313     0.120928     0.627931    Uiso  ? C
   H784       1.0     0.162727     0.120783     0.581749    Uiso  ? H
   H785       1.0     0.886364     0.122124     0.635963    Uiso  ? H
   H786       1.0     0.178334     0.117187     0.635729    Uiso  ? H
   N68        1.0     0.135258     0.120785     0.645376    Uiso  ? N
   C1109      1.0     0.316422     0.893300     0.713422    Uiso  ? C
   C1110      1.0     0.306889     0.883180     0.738758    Uiso  ? C
   C1111      1.0     0.331305     0.850101     0.719661    Uiso  ? C
   N69        1.0     0.333570     0.872922     0.702292    Uiso  ? N
   H787       1.0     0.316324     0.120978     0.706311    Uiso  ? H
   H788       1.0     0.295431     0.895281     0.755880    Uiso  ? H
   H789       1.0     0.341321     0.829708     0.714821    Uiso  ? H
   N70        1.0     0.315334     0.855730     0.741540    Uiso  ? N
   C1112      1.0     0.310690     0.837371     0.766384    Uiso  ? C
   H790       1.0     0.290712     0.842153     0.777671    Uiso  ? H
   H791       1.0     0.306906     0.815625     0.759229    Uiso  ? H
   C1113      1.0     0.333358     0.841864     0.786614    Uiso  ? C
   C1114      1.0     0.356826     0.824627     0.789897    Uiso  ? C
   C1115      1.0     0.333118     0.865903     0.803823    Uiso  ? C
   C1116      1.0     0.380495     0.829392     0.809149    Uiso  ? C
   H792       1.0     0.357231     0.803348     0.779739    Uiso  ? H
   C1117      1.0     0.355131     0.871813     0.822940    Uiso  ? C
   H793       1.0     0.315052     0.882737     0.803408    Uiso  ? H
   C1118      1.0     0.380682     0.854832     0.825101    Uiso  ? C
   H794       1.0     0.396712     0.813565     0.809984    Uiso  ? H
   H795       1.0     0.352241     0.887814     0.836826    Uiso  ? H
   C1119      1.0     0.403403     0.859666     0.846935    Uiso  ? C
   C1120      1.0     0.412679     0.887875     0.850679    Uiso  ? C
   C1121      1.0     0.410603     0.838683     0.866771    Uiso  ? C
   C1122      1.0     0.424540     0.895877     0.875968    Uiso  ? C
   H796       1.0     0.409405     0.109488     0.836145    Uiso  ? H
   C1123      1.0     0.421756     0.847824     0.892879    Uiso  ? C
   H797       1.0     0.405449     0.816221     0.863435    Uiso  ? H
   C1124      1.0     0.428654     0.876224     0.897667    Uiso  ? C
   H798       1.0     0.431140     0.122558     0.879155    Uiso  ? H
   H799       1.0     0.424339     0.834045     0.108692    Uiso  ? H
   C1125      1.0     0.432298     0.885801     0.126223    Uiso  ? C
   H800       1.0     0.440108     0.868206     0.140337    Uiso  ? H
   H801       1.0     0.452162     0.106737     0.128639    Uiso  ? H
   N71        1.0     0.407150     0.103343     0.136108    Uiso  ? N
   C1126      1.0     0.403021     0.131272     0.143702    Uiso  ? C
   C1127      1.0     0.379117     0.887937     0.134781    Uiso  ? C
   C1128      1.0     0.375081     0.136538     0.144449    Uiso  ? C
   H802       1.0     0.420678     0.147157     0.144493    Uiso  ? H
   H803       1.0     0.375776     0.867029     0.125267    Uiso  ? H
   H804       1.0     0.364638     0.157141     0.145692    Uiso  ? H
   N72        1.0     0.359871     0.112952     0.140428    Uiso  ? N
   C1129      1.0     0.845947     0.876689     0.385334    Uiso  ? C
   C1130      1.0     0.859677     0.876101     0.411175    Uiso  ? C
   C1131      1.0     0.889509     0.869067     0.378487    Uiso  ? C
   N73        1.0     0.864786     0.872322     0.365315    Uiso  ? N
   H805       1.0     0.823542     0.878137     0.382800    Uiso  ? H
   H806       1.0     0.848297     0.878071     0.431863    Uiso  ? H
   H807       1.0     0.113880     0.865652     0.366905    Uiso  ? H
   N74        1.0     0.887929     0.872434     0.406397    Uiso  ? N
   C1132      1.0     0.113937     0.870492     0.429295    Uiso  ? C
   H808       1.0     0.119011     0.893215     0.434577    Uiso  ? H
   H809       1.0     0.104573     0.860626     0.447859    Uiso  ? H
   C1133      1.0     0.139262     0.855363     0.417533    Uiso  ? C
   C1134      1.0     0.137408     0.825537     0.412910    Uiso  ? C
   C1135      1.0     0.163694     0.868923     0.407852    Uiso  ? C
   C1136      1.0     0.158596     0.809844     0.398814    Uiso  ? C
   H810       1.0     0.118154     0.817103     0.420523    Uiso  ? H
   C1137      1.0     0.184978     0.853988     0.393429    Uiso  ? C
   H811       1.0     0.163972     0.891061     0.411120    Uiso  ? H
   C1138      1.0     0.183107     0.823249     0.391048    Uiso  ? C
   H812       1.0     0.154158     0.788982     0.394738    Uiso  ? H
   H813       1.0     0.203356     0.866501     0.384946    Uiso  ? H
   C1139      1.0     0.202003     0.807432     0.373225    Uiso  ? C
   C1140      1.0     0.209313     0.818543     0.346086    Uiso  ? C
   C1141      1.0     0.211459     0.779842     0.381557    Uiso  ? C
   C1142      1.0     0.225265     0.803043     0.327327    Uiso  ? C
   H814       1.0     0.201076     0.839862     0.339381    Uiso  ? H
   C1143      1.0     0.227882     0.763309     0.361735    Uiso  ? C
   H815       1.0     0.204777     0.771325     0.401944    Uiso  ? H
   C1144      1.0     0.234704     0.774674     0.333950    Uiso  ? C
   H816       1.0     0.229926     0.811631     0.305753    Uiso  ? H
   H817       1.0     0.237067     0.743317     0.368627    Uiso  ? H
   C1145      1.0     0.255632     0.759070     0.315735    Uiso  ? C
   H818       1.0     0.262401     0.738041     0.323893    Uiso  ? H
   H819       1.0     0.244498     0.753867     0.295064    Uiso  ? H
   N75        1.0     0.281129     0.776461     0.311729    Uiso  ? N
   C1146      1.0     0.287029     0.794980     0.291962    Uiso  ? C
   C1147      1.0     0.298555     0.782792     0.333265    Uiso  ? C
   C1148      1.0     0.309489     0.812073     0.301397    Uiso  ? C
   H820       1.0     0.276222     0.797098     0.272604    Uiso  ? H
   H821       1.0     0.298945     0.773187     0.354648    Uiso  ? H
   H822       1.0     0.318778     0.829626     0.291928    Uiso  ? H
   N76        1.0     0.317408     0.803471     0.326468    Uiso  ? N
   C1149      1.0     0.610853     0.886310     0.846098    Uiso  ? C
   C1150      1.0     0.583437     0.881698     0.853028    Uiso  ? C
   C1151      1.0     0.607855     0.872392     0.889032    Uiso  ? C
   N77        1.0     0.626892     0.881666     0.869756    Uiso  ? N
   H823       1.0     0.619809     0.892649     0.825351    Uiso  ? H
   H824       1.0     0.565286     0.887173     0.839729    Uiso  ? H
   H825       1.0     0.615356     0.864630     0.107978    Uiso  ? H
   N78        1.0     0.580941     0.873881     0.880528    Uiso  ? N
   C1152      1.0     0.555564     0.873654     0.898195    Uiso  ? C
   H826       1.0     0.537969     0.885002     0.888701    Uiso  ? H
   H827       1.0     0.547107     0.854137     0.102204    Uiso  ? H
   C1153      1.0     0.561057     0.889799     0.124582    Uiso  ? C
   C1154      1.0     0.566043     0.125423     0.124569    Uiso  ? C
   C1155      1.0     0.569154     0.874625     0.148014    Uiso  ? C
   C1156      1.0     0.582658     0.137743     0.145168    Uiso  ? C
   H828       1.0     0.560255     0.138769     0.105738    Uiso  ? H
   C1157      1.0     0.588242     0.887027     0.166330    Uiso  ? C
   H829       1.0     0.566615     0.851164     0.148519    Uiso  ? H
   C1158      1.0     0.594009     0.121487     0.167278    Uiso  ? C
   H830       1.0     0.590914     0.159828     0.143196    Uiso  ? H
   H831       1.0     0.594469     0.873090     0.183661    Uiso  ? H
   C1159      1.0     0.617336     0.133872     0.183977    Uiso  ? C
   C1160      1.0     0.644573     0.120783     0.182492    Uiso  ? C
   C1161      1.0     0.613540     0.158918     0.199655    Uiso  ? C
   C1162      1.0     0.666433     0.132793     0.196292    Uiso  ? C
   H832       1.0     0.645362     0.893631     0.175757    Uiso  ? H
   C1163      1.0     0.635676     0.170783     0.214435    Uiso  ? C
   H833       1.0     0.593360     0.167689     0.201244    Uiso  ? H
   C1164      1.0     0.663048     0.159686     0.210594    Uiso  ? C
   H834       1.0     0.686262     0.123262     0.196642    Uiso  ? H
   H835       1.0     0.631774     0.188103     0.229933    Uiso  ? H
   C1165      1.0     0.687174     0.171668     0.228953    Uiso  ? C
   H836       1.0     0.707658     0.169636     0.218356    Uiso  ? H
   H837       1.0     0.682126     0.193651     0.235729    Uiso  ? H
   N79        1.0     0.686213     0.154723     0.254985    Uiso  ? N
   C1166      1.0     0.703946     0.132982     0.260624    Uiso  ? C
   C1167      1.0     0.665956     0.153919     0.274839    Uiso  ? C
   C1168      1.0     0.694511     0.119367     0.284836    Uiso  ? C
   H838       1.0     0.721953     0.125854     0.247060    Uiso  ? H
   H839       1.0     0.647514     0.168058     0.276275    Uiso  ? H
   H840       1.0     0.701645     0.895957     0.295796    Uiso  ? H
   N80        1.0     0.670831     0.133126     0.293959    Uiso  ? N
   C1169      1.0     0.847086     0.556864     0.786009    Uiso  ? C
   C1170      1.0     0.859259     0.550349     0.812213    Uiso  ? C
   C1171      1.0     0.879013     0.525617     0.780275    Uiso  ? C
   N81        1.0     0.859647     0.540649     0.766170    Uiso  ? N
   H841       1.0     0.829753     0.570517     0.781793    Uiso  ? H
   H842       1.0     0.851730     0.556304     0.833798    Uiso  ? H
   H843       1.0     0.893835     0.511762     0.769589    Uiso  ? H
   N82        1.0     0.878477     0.530946     0.808534    Uiso  ? N
   C1172      1.0     0.895156     0.517079     0.831297    Uiso  ? C
   H844       1.0     0.113690     0.534244     0.842879    Uiso  ? H
   H845       1.0     0.878791     0.509574     0.846333    Uiso  ? H
   C1173      1.0     0.118154     0.493189     0.820087    Uiso  ? C
   C1174      1.0     0.108409     0.464685     0.818955    Uiso  ? C
   C1175      1.0     0.146493     0.498765     0.808595    Uiso  ? C
   C1176      1.0     0.125628     0.443045     0.808326    Uiso  ? C
   H846       1.0     0.883840     0.458672     0.827444    Uiso  ? H
   C1177      1.0     0.161521     0.476682     0.797018    Uiso  ? C
   H847       1.0     0.155214     0.519314     0.809426    Uiso  ? H
   C1178      1.0     0.150631     0.449108     0.793971    Uiso  ? C
   H848       1.0     0.117191     0.421819     0.807448    Uiso  ? H
   H849       1.0     0.183508     0.479159     0.790380    Uiso  ? H
   C1179      1.0     0.170199     0.426862     0.784531    Uiso  ? C
   C1180      1.0     0.174603     0.423108     0.755119    Uiso  ? C
   C1181      1.0     0.183956     0.409656     0.803365    Uiso  ? C
   C1182      1.0     0.191056     0.400298     0.745771    Uiso  ? C
   H850       1.0     0.165783     0.437728     0.740938    Uiso  ? H
   C1183      1.0     0.202489     0.387677     0.793778    Uiso  ? C
   H851       1.0     0.175912     0.411308     0.824369    Uiso  ? H
   C1184      1.0     0.205084     0.382611     0.764544    Uiso  ? C
   H852       1.0     0.195774     0.400887     0.722734    Uiso  ? H
   H853       1.0     0.213050     0.373608     0.808472    Uiso  ? H
   C1185      1.0     0.226113     0.360891     0.753503    Uiso  ? C
   H854       1.0     0.217963     0.351767     0.732302    Uiso  ? H
   H855       1.0     0.245588     0.374834     0.747996    Uiso  ? H
   N83        1.0     0.233958     0.338842     0.773527    Uiso  ? N
   C1186      1.0     0.259555     0.337370     0.787795    Uiso  ? C
   C1187      1.0     0.218852     0.316926     0.783136    Uiso  ? C
   C1188      1.0     0.256317     0.315857     0.808294    Uiso  ? C
   H856       1.0     0.278906     0.350240     0.784936    Uiso  ? H
   H857       1.0     0.198557     0.311932     0.775828    Uiso  ? H
   H858       1.0     0.270209     0.313484     0.826738    Uiso  ? H
   N84        1.0     0.230745     0.302049     0.804324    Uiso  ? N
   C1189      1.0     0.264015     0.721686     0.463370    Uiso  ? C
   C1190      1.0     0.277004     0.746615     0.471319    Uiso  ? C
   C1191      1.0     0.259086     0.726788     0.507008    Uiso  ? C
   N85        1.0     0.254013     0.709171     0.485875    Uiso  ? N
   H859       1.0     0.261707     0.713436     0.442148    Uiso  ? H
   H860       1.0     0.287818     0.761065     0.457341    Uiso  ? H
   H861       1.0     0.251138     0.724037     0.529445    Uiso  ? H
   N86        1.0     0.271495     0.750754     0.498693    Uiso  ? N
   C1192      1.0     0.284034     0.773864     0.516700    Uiso  ? C
   H862       1.0     0.306181     0.779575     0.508304    Uiso  ? H
   H863       1.0     0.269620     0.792799     0.514280    Uiso  ? H
   C1193      1.0     0.286255     0.763152     0.547389    Uiso  ? C
   C1194      1.0     0.271100     0.777004     0.567934    Uiso  ? C
   C1195      1.0     0.301280     0.737468     0.555185    Uiso  ? C
   C1196      1.0     0.270663     0.767809     0.596108    Uiso  ? C
   H864       1.0     0.257873     0.795251     0.562999    Uiso  ? H
   C1197      1.0     0.303780     0.729986     0.583647    Uiso  ? C
   H865       1.0     0.314624     0.725117     0.541529    Uiso  ? H
   C1198      1.0     0.288439     0.744261     0.604300    Uiso  ? C
   H866       1.0     0.261843     0.780501     0.613360    Uiso  ? H
   H867       1.0     0.316488     0.711875     0.587767    Uiso  ? H
   C1199      1.0     0.290770     0.734410     0.634126    Uiso  ? C
   C1200      1.0     0.291495     0.705538     0.642058    Uiso  ? C
   C1201      1.0     0.293389     0.754688     0.655914    Uiso  ? C
   C1202      1.0     0.298451     0.698735     0.669773    Uiso  ? C
   H868       1.0     0.289126     0.690125     0.626067    Uiso  ? H
   C1203      1.0     0.301685     0.747541     0.683980    Uiso  ? C
   H869       1.0     0.295238     0.776597     0.651003    Uiso  ? H
   C1204      1.0     0.304109     0.719444     0.690974    Uiso  ? C
   H870       1.0     0.302406     0.676915     0.675423    Uiso  ? H
   H871       1.0     0.307914     0.764914     0.696880    Uiso  ? H
   C1205      1.0     0.312791     0.713531     0.721745    Uiso  ? C
   H872       1.0     0.325093     0.694532     0.722301    Uiso  ? H
   H873       1.0     0.323384     0.732236     0.730845    Uiso  ? H
   N87        1.0     0.289037     0.710791     0.741415    Uiso  ? N
   C1206      1.0     0.278618     0.687073     0.752882    Uiso  ? C
   C1207      1.0     0.275518     0.732158     0.754067    Uiso  ? C
   C1208      1.0     0.259975     0.694905     0.774994    Uiso  ? C
   H874       1.0     0.287849     0.665300     0.750295    Uiso  ? H
   H875       1.0     0.279689     0.754697     0.749351    Uiso  ? H
   H876       1.0     0.249312     0.680272     0.788696    Uiso  ? H
   N88        1.0     0.257767     0.722899     0.774403    Uiso  ? N
   C1209      1.0     0.153282     0.461253     0.229806    Uiso  ? C
   C1210      1.0     0.142430     0.469357     0.204569    Uiso  ? C
   C1211      1.0     0.107998     0.460778     0.232599    Uiso  ? C
   N89        1.0     0.131742     0.456626     0.247819    Uiso  ? N
   H877       1.0     0.174811     0.463569     0.235016    Uiso  ? H
   H878       1.0     0.152480     0.476633     0.185960    Uiso  ? H
   H879       1.0     0.881478     0.462218     0.240888    Uiso  ? H
   N90        1.0     0.113216     0.471013     0.205994    Uiso  ? N
   C1212      1.0     0.889297     0.484437     0.184764    Uiso  ? C
   H880       1.0     0.108226     0.493162     0.166931    Uiso  ? H
   H881       1.0     0.877270     0.466388     0.174692    Uiso  ? H
   C1213      1.0     0.871073     0.506796     0.199651    Uiso  ? C
   C1214      1.0     0.881389     0.534736     0.202578    Uiso  ? C
   C1215      1.0     0.843222     0.500544     0.209141    Uiso  ? C
   C1216      1.0     0.864573     0.556185     0.213629    Uiso  ? C
   H882       1.0     0.105243     0.539516     0.191245    Uiso  ? H
   C1217      1.0     0.826990     0.520597     0.222423    Uiso  ? C
   H883       1.0     0.835055     0.479182     0.208677    Uiso  ? H
   C1218      1.0     0.836661     0.549655     0.223407    Uiso  ? C
   H884       1.0     0.872562     0.578181     0.212587    Uiso  ? H
   H885       1.0     0.808540     0.511678     0.233150    Uiso  ? H
   C1219      1.0     0.817676     0.572898     0.233665    Uiso  ? C
   C1220      1.0     0.826948     0.598735     0.245622    Uiso  ? C
   C1221      1.0     0.788542     0.569883     0.229547    Uiso  ? C
   C1222      1.0     0.809365     0.619806     0.254234    Uiso  ? C
   H886       1.0     0.848778     0.598811     0.252870    Uiso  ? H
   C1223      1.0     0.768904     0.590466     0.239633    Uiso  ? C
   H887       1.0     0.778846     0.551449     0.219968    Uiso  ? H
   C1224      1.0     0.779121     0.615115     0.252207    Uiso  ? C
   H888       1.0     0.817598     0.639544     0.263994    Uiso  ? H
   H889       1.0     0.746225     0.586172     0.237039    Uiso  ? H
   C1225      1.0     0.757651     0.635459     0.264151    Uiso  ? C
   H890       1.0     0.737647     0.625004     0.271473    Uiso  ? H
   H891       1.0     0.769177     0.647683     0.281521    Uiso  ? H
   N91        1.0     0.750314     0.656005     0.241622    Uiso  ? N
   C1226      1.0     0.724343     0.662655     0.231161    Uiso  ? C
   C1227      1.0     0.768634     0.674008     0.228192    Uiso  ? C
   C1228      1.0     0.729136     0.683178     0.210028    Uiso  ? C
   H892       1.0     0.703541     0.654639     0.237188    Uiso  ? H
   H893       1.0     0.790321     0.674697     0.231778    Uiso  ? H
   H894       1.0     0.712989     0.694672     0.197163    Uiso  ? H
   N92        1.0     0.756409     0.691743     0.209281    Uiso  ? N
   C1229      1.0     0.743413     0.260301     0.547255    Uiso  ? C
   C1230      1.0     0.730457     0.236038     0.537871    Uiso  ? C
   C1231      1.0     0.733059     0.263925     0.503969    Uiso  ? C
   N93        1.0     0.744287     0.278539     0.525149    Uiso  ? N
   H895       1.0     0.750494     0.265488     0.568857    Uiso  ? H
   H896       1.0     0.731613     0.216266     0.549045    Uiso  ? H
   H897       1.0     0.737280     0.272202     0.483212    Uiso  ? H
   N94        1.0     0.724078     0.237929     0.510522    Uiso  ? N
   C1232      1.0     0.711148     0.215887     0.491955    Uiso  ? C
   H898       1.0     0.720984     0.195290     0.497966    Uiso  ? H
   H899       1.0     0.687379     0.214182     0.498311    Uiso  ? H
   C1233      1.0     0.713343     0.224904     0.461867    Uiso  ? C
   C1234      1.0     0.730750     0.211319     0.442587    Uiso  ? C
   C1235      1.0     0.696191     0.246962     0.452107    Uiso  ? C
   C1236      1.0     0.735810     0.223000     0.415262    Uiso  ? C
   H900       1.0     0.745990     0.195912     0.448021    Uiso  ? H
   C1237      1.0     0.698912     0.257904     0.425066    Uiso  ? C
   H901       1.0     0.681878     0.259308     0.465506    Uiso  ? H
   C1238      1.0     0.721103     0.246877     0.406898    Uiso  ? C
   H902       1.0     0.753346     0.215594     0.402589    Uiso  ? H
   H903       1.0     0.686204     0.276946     0.419122    Uiso  ? H
   C1239      1.0     0.728820     0.261007     0.379089    Uiso  ? C
   C1240      1.0     0.729280     0.290481     0.379369    Uiso  ? C
   C1241      1.0     0.732468     0.247029     0.353365    Uiso  ? C
   C1242      1.0     0.730650     0.306007     0.354421    Uiso  ? C
   H904       1.0     0.732025     0.300102     0.398500    Uiso  ? H
   C1243      1.0     0.735789     0.262621     0.327560    Uiso  ? C
   H905       1.0     0.732716     0.223519     0.351571    Uiso  ? H
   C1244      1.0     0.734998     0.293138     0.328073    Uiso  ? C
   H906       1.0     0.735187     0.327572     0.355825    Uiso  ? H
   H907       1.0     0.739123     0.250461     0.308821    Uiso  ? H
   C1245      1.0     0.735585     0.310657     0.300330    Uiso  ? C
   H908       1.0     0.719370     0.327939     0.305008    Uiso  ? H
   H909       1.0     0.755471     0.322807     0.293620    Uiso  ? H
   N95        1.0     0.728470     0.292358     0.275450    Uiso  ? N
   C1246      1.0     0.706570     0.295059     0.256917    Uiso  ? C
   C1247      1.0     0.747678     0.276104     0.261648    Uiso  ? C
   C1248      1.0     0.712938     0.281128     0.232032    Uiso  ? C
   H910       1.0     0.687405     0.307328     0.261444    Uiso  ? H
   H911       1.0     0.766898     0.268890     0.271639    Uiso  ? H
   H912       1.0     0.700112     0.279510     0.214212    Uiso  ? H
   N96        1.0     0.737379     0.267467     0.236214    Uiso  ? N
