
#======================================================================
# CRYSTAL DATA
#----------------------------------------------------------------------
data_VESTA_phase_1

_chemical_name_common                  ' Atoms. Timestep: 0'
_cell_length_a                         57.948875
_cell_length_b                         57.948875
_cell_length_c                         57.948875
_cell_angle_alpha                      90.000000
_cell_angle_beta                       90.000000
_cell_angle_gamma                      90.000000
_cell_volume                           1.000000
_space_group_name_H-M_alt              'P 1'
_space_group_IT_number                 1

loop_
_space_group_symop_operation_xyz
   'x, y, z'

loop_
   _atom_site_label
   _atom_site_occupancy
   _atom_site_fract_x
   _atom_site_fract_y
   _atom_site_fract_z
   _atom_site_adp_type
   _atom_site_U_iso_or_equiv
   _atom_site_type_symbol
   C1         1.0     0.843405     0.250361     0.143545    Uiso  ? C
   C2         1.0     0.832889     0.259459     0.121719    Uiso  ? C
   C3         1.0     0.828639     0.282890     0.118435    Uiso  ? C
   H1         1.0     0.831360     0.295717     0.131058    Uiso  ? H
   C4         1.0     0.820547     0.289565     0.898380    Uiso  ? C
   H2         1.0     0.818071     0.307277     0.896107    Uiso  ? H
   C5         1.0     0.813858     0.274522     0.880490    Uiso  ? C
   H3         1.0     0.807392     0.283068     0.865019    Uiso  ? H
   C6         1.0     0.815833     0.249982     0.883189    Uiso  ? C
   C7         1.0     0.826654     0.243276     0.103927    Uiso  ? C
   H4         1.0     0.830975     0.225189     0.105354    Uiso  ? H
   C8         1.0     0.805123     0.234190     0.866981    Uiso  ? C
   C9         1.0     0.825740     0.221061     0.188699    Uiso  ? C
   C10        1.0     0.801532     0.211814     0.195044    Uiso  ? C
   C11        1.0     0.785288     0.226908     0.205324    Uiso  ? C
   H5         1.0     0.789834     0.244560     0.208437    Uiso  ? H
   C12        1.0     0.762016     0.220863     0.208194    Uiso  ? C
   H6         1.0     0.749831     0.232913     0.216539    Uiso  ? H
   C13        1.0     0.755141     0.199556     0.199728    Uiso  ? C
   H7         1.0     0.736601     0.194971     0.202137    Uiso  ? H
   C14        1.0     0.770563     0.184614     0.188502    Uiso  ? C
   C15        1.0     0.794239     0.191069     0.185867    Uiso  ? C
   H8         1.0     0.806367     0.178859     0.179144    Uiso  ? H
   C16        1.0     0.762389     0.162592     0.179057    Uiso  ? C
   C17        1.0     0.886768     0.221671     0.210699    Uiso  ? C
   C18        1.0     0.106069     0.214904     0.230139    Uiso  ? C
   C19        1.0     0.108491     0.230326     0.249363    Uiso  ? C
   H9         1.0     0.893957     0.246128     0.250743    Uiso  ? H
   C20        1.0     0.123966     0.225227     0.266414    Uiso  ? C
   H10        1.0     0.126759     0.235666     0.281446    Uiso  ? H
   C21        1.0     0.136102     0.204077     0.265543    Uiso  ? C
   H11        1.0     0.147902     0.199877     0.280390    Uiso  ? H
   C22        1.0     0.133052     0.188529     0.246307    Uiso  ? C
   C23        1.0     0.119310     0.195120     0.228493    Uiso  ? C
   H12        1.0     0.119517     0.183978     0.213246    Uiso  ? H
   C24        1.0     0.146615     0.166594     0.245608    Uiso  ? C
   C25        1.0     0.105554     0.253443     0.160516    Uiso  ? C
   C26        1.0     0.127123     0.262976     0.153010    Uiso  ? C
   C27        1.0     0.134443     0.286357     0.158044    Uiso  ? C
   H13        1.0     0.123265     0.299253     0.166496    Uiso  ? H
   C28        1.0     0.157405     0.293073     0.152884    Uiso  ? C
   H14        1.0     0.164223     0.310552     0.155521    Uiso  ? H
   C29        1.0     0.173613     0.277587     0.143681    Uiso  ? C
   H15        1.0     0.190764     0.284005     0.139951    Uiso  ? H
   C30        1.0     0.166404     0.255009     0.137589    Uiso  ? C
   C31        1.0     0.143459     0.248299     0.141772    Uiso  ? C
   H16        1.0     0.139426     0.230337     0.137058    Uiso  ? H
   C32        1.0     0.184047     0.239115     0.126951    Uiso  ? C
   C33        1.0     0.775549     0.177109     0.810602    Uiso  ? C
   C34        1.0     0.767504     0.158980     0.794393    Uiso  ? C
   C35        1.0     0.747462     0.162062     0.781760    Uiso  ? C
   H17        1.0     0.737681     0.176708     0.783735    Uiso  ? H
   C36        1.0     0.740042     0.144524     0.766192    Uiso  ? C
   H18        1.0     0.724107     0.145715     0.758387    Uiso  ? H
   C37        1.0     0.755324     0.126739     0.761694    Uiso  ? C
   H19        1.0     0.748818     0.113207     0.749681    Uiso  ? H
   C38        1.0     0.775176     0.123312     0.774738    Uiso  ? C
   C39        1.0     0.781062     0.139639     0.791592    Uiso  ? C
   H20        1.0     0.796579     0.138185     0.800954    Uiso  ? H
   C40        1.0     0.790893     0.103147     0.771205    Uiso  ? C
   C41        1.0     0.759781     0.195874     0.864465    Uiso  ? C
   C42        1.0     0.741217     0.186797     0.879580    Uiso  ? C
   C43        1.0     0.718585     0.194621     0.876493    Uiso  ? C
   H21        1.0     0.714873     0.209046     0.865835    Uiso  ? H
   C44        1.0     0.700248     0.186502     0.890737    Uiso  ? C
   H22        1.0     0.684025     0.192937     0.889108    Uiso  ? H
   C45        1.0     0.705427     0.170733     0.108142    Uiso  ? C
   H23        1.0     0.691872     0.164255     0.118770    Uiso  ? H
   C46        1.0     0.728054     0.164255     0.111657    Uiso  ? C
   C47        1.0     0.745105     0.170742     0.897085    Uiso  ? C
   H24        1.0     0.762694     0.164445     0.898797    Uiso  ? H
   C48        1.0     0.733610     0.147379     0.130044    Uiso  ? C
   C49        1.0     0.823255     0.218604     0.811465    Uiso  ? C
   C50        1.0     0.842422     0.227172     0.796845    Uiso  ? C
   C51        1.0     0.839141     0.244939     0.780690    Uiso  ? C
   H25        1.0     0.823217     0.254594     0.779290    Uiso  ? H
   C52        1.0     0.856106     0.249947     0.764142    Uiso  ? C
   H26        1.0     0.853317     0.263759     0.751890    Uiso  ? H
   C53        1.0     0.877375     0.238563     0.765695    Uiso  ? C
   H27        1.0     0.892002     0.244720     0.754344    Uiso  ? H
   C54        1.0     0.881102     0.220454     0.781187    Uiso  ? C
   C55        1.0     0.863685     0.214195     0.795991    Uiso  ? C
   H28        1.0     0.866684     0.198435     0.804725    Uiso  ? H
   C56        1.0     0.106292     0.205972     0.779466    Uiso  ? C
   C57        1.0     0.734483     0.882824     0.144992    Uiso  ? C
   C58        1.0     0.724083     0.860880     0.134870    Uiso  ? C
   C59        1.0     0.700883     0.855051     0.137729    Uiso  ? C
   H29        1.0     0.687671     0.868693     0.140072    Uiso  ? H
   C60        1.0     0.693173     0.833439     0.129670    Uiso  ? C
   H30        1.0     0.674901     0.829751     0.131159    Uiso  ? H
   C61        1.0     0.709013     0.815741     0.124341    Uiso  ? C
   H31        1.0     0.702852     0.797395     0.120781    Uiso  ? H
   C62        1.0     0.731959     0.822008     0.120282    Uiso  ? C
   C63        1.0     0.739338     0.844111     0.125328    Uiso  ? C
   H32        1.0     0.756715     0.849664     0.123201    Uiso  ? H
   C64        1.0     0.749105     0.805226     0.110128    Uiso  ? C
   C65        1.0     0.759086     0.103421     0.196963    Uiso  ? C
   C66        1.0     0.765302     0.884172     0.216213    Uiso  ? C
   C67        1.0     0.750220     0.881488     0.234810    Uiso  ? C
   H33        1.0     0.733260     0.890771     0.236462    Uiso  ? H
   C68        1.0     0.755435     0.866560     0.252450    Uiso  ? C
   H34        1.0     0.743588     0.863914     0.266661    Uiso  ? H
   C69        1.0     0.777052     0.854421     0.252607    Uiso  ? C
   H35        1.0     0.781599     0.842884     0.266153    Uiso  ? H
   C70        1.0     0.792835     0.858061     0.233947    Uiso  ? C
   C71        1.0     0.786926     0.872744     0.216161    Uiso  ? C
   H36        1.0     0.795163     0.872408     0.199256    Uiso  ? H
   C72        1.0     0.814951     0.844238     0.232757    Uiso  ? C
   C73        1.0     0.114387     0.155985     0.750670    Uiso  ? C
   C74        1.0     0.893824     0.141880     0.736483    Uiso  ? C
   C75        1.0     0.894782     0.143237     0.712226    Uiso  ? C
   H37        1.0     0.110868     0.155036     0.703413    Uiso  ? H
   C76        1.0     0.879033     0.129591     0.698887    Uiso  ? C
   H38        1.0     0.879473     0.132477     0.680263    Uiso  ? H
   C77        1.0     0.863516     0.115332     0.709051    Uiso  ? C
   H39        1.0     0.850304     0.107467     0.697489    Uiso  ? H
   C78        1.0     0.862277     0.113145     0.733788    Uiso  ? C
   C79        1.0     0.879737     0.124599     0.746667    Uiso  ? C
   H40        1.0     0.881694     0.122868     0.765782    Uiso  ? H
   C80        1.0     0.845307     0.892417     0.745205    Uiso  ? C
   C81        1.0     0.165201     0.208930     0.796580    Uiso  ? C
   C82        1.0     0.178182     0.225539     0.811558    Uiso  ? C
   C83        1.0     0.185761     0.246465     0.803016    Uiso  ? C
   H41        1.0     0.185217     0.250344     0.785142    Uiso  ? H
   C84        1.0     0.199167     0.261328     0.816266    Uiso  ? C
   H42        1.0     0.205298     0.276735     0.809639    Uiso  ? H
   C85        1.0     0.203527     0.255989     0.839231    Uiso  ? C
   H43        1.0     0.213471     0.269328     0.848817    Uiso  ? H
   C86        1.0     0.196309     0.234777     0.847949    Uiso  ? C
   C87        1.0     0.183314     0.218794     0.834044    Uiso  ? C
   H44        1.0     0.177081     0.201810     0.840737    Uiso  ? H
   C88        1.0     0.203859     0.227210     0.870760    Uiso  ? C
   C89        1.0     0.223897     0.199584     0.147345    Uiso  ? C
   C90        1.0     0.228260     0.192024     0.171518    Uiso  ? C
   C91        1.0     0.247461     0.198749     0.182892    Uiso  ? C
   H45        1.0     0.259862     0.211355     0.175347    Uiso  ? H
   C92        1.0     0.252709     0.190081     0.204673    Uiso  ? C
   H46        1.0     0.269304     0.192545     0.212515    Uiso  ? H
   C93        1.0     0.236555     0.175979     0.216187    Uiso  ? C
   H47        1.0     0.239307     0.169084     0.233666    Uiso  ? H
   C94        1.0     0.215586     0.169367     0.205043    Uiso  ? C
   C95        1.0     0.211282     0.178123     0.182178    Uiso  ? C
   H48        1.0     0.196830     0.172056     0.173418    Uiso  ? H
   C96        1.0     0.198582     0.155088     0.216910    Uiso  ? C
   O1         1.0     0.853038     0.229124     0.143600    Uiso  ? O
   O2         1.0     0.846649     0.263135     0.161593    Uiso  ? O
   O3         1.0     0.840784     0.206889     0.178664    Uiso  ? O
   O4         1.0     0.832187     0.241688     0.195600    Uiso  ? O
   O5         1.0     0.884797     0.208932     0.192323    Uiso  ? O
   O6         1.0     0.875684     0.241196     0.211902    Uiso  ? O
   O7         1.0     0.895684     0.231935     0.155234    Uiso  ? O
   O8         1.0     0.887444     0.266263     0.174399    Uiso  ? O
   O9         1.0     0.792148     0.171248     0.824798    Uiso  ? O
   O10        1.0     0.767902     0.198919     0.809139    Uiso  ? O
   O11        1.0     0.780094     0.184099     0.863225    Uiso  ? O
   O12        1.0     0.756018     0.212973     0.849481    Uiso  ? O
   O13        1.0     0.813582     0.213051     0.865031    Uiso  ? O
   O14        1.0     0.788062     0.240787     0.853576    Uiso  ? O
   O15        1.0     0.825522     0.200012     0.823909    Uiso  ? O
   O16        1.0     0.804780     0.231030     0.813312    Uiso  ? O
   O17        1.0     0.753933     0.891968     0.138281    Uiso  ? O
   O18        1.0     0.722197     0.894210     0.160226    Uiso  ? O
   O19        1.0     0.772767     0.104371     0.178606    Uiso  ? O
   O20        1.0     0.739602     0.114946     0.198371    Uiso  ? O
   O21        1.0     0.775266     0.149759     0.167128    Uiso  ? O
   O22        1.0     0.740316     0.156659     0.180856    Uiso  ? O
   O23        1.0     0.754613     0.139130     0.130170    Uiso  ? O
   O24        1.0     0.719301     0.143417     0.146802    Uiso  ? O
   O25        1.0     0.116729     0.152644     0.773808    Uiso  ? O
   O26        1.0     0.126741     0.171566     0.739904    Uiso  ? O
   O27        1.0     0.109861     0.187719     0.791675    Uiso  ? O
   O28        1.0     0.121928     0.211387     0.763851    Uiso  ? O
   O29        1.0     0.151653     0.193944     0.807403    Uiso  ? O
   O30        1.0     0.166736     0.209612     0.773780    Uiso  ? O
   O31        1.0     0.161432     0.153065     0.786895    Uiso  ? O
   O32        1.0     0.168308     0.169930     0.754102    Uiso  ? O
   O33        1.0     0.191460     0.211229     0.880902    Uiso  ? O
   O34        1.0     0.221790     0.237902     0.881335    Uiso  ? O
   O35        1.0     0.177158     0.218124     0.121649    Uiso  ? O
   O36        1.0     0.204649     0.246603     0.121906    Uiso  ? O
   O37        1.0     0.205812     0.192051     0.136773    Uiso  ? O
   O38        1.0     0.235542     0.217555     0.139618    Uiso  ? O
   O39        1.0     0.221592     0.179385     0.894449    Uiso  ? O
   O40        1.0     0.248674     0.207453     0.897598    Uiso  ? O
   O41        1.0     0.844793     0.845507     0.777979    Uiso  ? O
   O42        1.0     0.829334     0.837251     0.741738    Uiso  ? O
   O43        1.0     0.805922     0.852349     0.797208    Uiso  ? O
   O44        1.0     0.788098     0.843576     0.764113    Uiso  ? O
   O45        1.0     0.804540     0.892686     0.787870    Uiso  ? O
   O46        1.0     0.789214     0.887537     0.751654    Uiso  ? O
   O47        1.0     0.845117     0.890146     0.767252    Uiso  ? O
   O48        1.0     0.831702     0.879595     0.733139    Uiso  ? O
   O49        1.0     0.874099     0.187062     0.152020    Uiso  ? O
   O50        1.0     0.824630     0.168552     0.859953    Uiso  ? O
   O51        1.0     0.796324     0.118681     0.140729    Uiso  ? O
   O52        1.0     0.128387     0.154850     0.820154    Uiso  ? O
   O53        1.0     0.176291     0.174277     0.108274    Uiso  ? O
   O54        1.0     0.843326     0.878907     0.810288    Uiso  ? O
   Zn1        1.0     0.868372     0.215586     0.166196    Uiso  ? Zn
   Zn2        1.0     0.860130     0.255711     0.188081    Uiso  ? Zn
   Zn3        1.0     0.805059     0.189323     0.845243    Uiso  ? Zn
   Zn4        1.0     0.776686     0.224024     0.828421    Uiso  ? Zn
   Zn5        1.0     0.768294     0.121571     0.152983    Uiso  ? Zn
   Zn6        1.0     0.726977     0.128932     0.173731    Uiso  ? Zn
   Zn7        1.0     0.135486     0.169636     0.793384    Uiso  ? Zn
   Zn8        1.0     0.147078     0.192643     0.754793    Uiso  ? Zn
   Zn9        1.0     0.197310     0.197292     0.107995    Uiso  ? Zn
   Zn10       1.0     0.230335     0.230482     0.110452    Uiso  ? Zn
   Zn11       1.0     0.827481     0.871573     0.785306    Uiso  ? Zn
   Zn12       1.0     0.807308     0.861581     0.744278    Uiso  ? Zn
   C97        1.0     0.150328     0.742956     0.855647    Uiso  ? C
   C98        1.0     0.165290     0.735815     0.874707    Uiso  ? C
   C99        1.0     0.175674     0.713142     0.875613    Uiso  ? C
   H49        1.0     0.175414     0.703157     0.860179    Uiso  ? H
   C100       1.0     0.188411     0.706087     0.894507    Uiso  ? C
   H50        1.0     0.194066     0.688629     0.896775    Uiso  ? H
   C101       1.0     0.191432     0.722895     0.112759    Uiso  ? C
   H51        1.0     0.199700     0.715746     0.127989    Uiso  ? H
   C102       1.0     0.180920     0.744785     0.112828    Uiso  ? C
   C103       1.0     0.167846     0.750573     0.894616    Uiso  ? C
   H52        1.0     0.160046     0.768332     0.894600    Uiso  ? H
   C104       1.0     0.185620     0.761819     0.131128    Uiso  ? C
   C105       1.0     0.160924     0.778712     0.807815    Uiso  ? C
   C106       1.0     0.182845     0.789626     0.800828    Uiso  ? C
   C107       1.0     0.196987     0.778358     0.783851    Uiso  ? C
   H53        1.0     0.192896     0.761693     0.778631    Uiso  ? H
   C108       1.0     0.217802     0.787600     0.776086    Uiso  ? C
   H54        1.0     0.228065     0.778413     0.763419    Uiso  ? H
   C109       1.0     0.226125     0.807570     0.786730    Uiso  ? C
   H55        1.0     0.243276     0.813748     0.781942    Uiso  ? H
   C110       1.0     0.212975     0.818250     0.804847    Uiso  ? C
   C111       1.0     0.191624     0.809368     0.810887    Uiso  ? C
   H56        1.0     0.181949     0.816623     0.824889    Uiso  ? H
   C112       1.0     0.223942     0.836725     0.817265    Uiso  ? C
   C113       1.0     0.102297     0.773455     0.789753    Uiso  ? C
   C114       1.0     0.884699     0.783554     0.770555    Uiso  ? C
   C115       1.0     0.885261     0.773576     0.749616    Uiso  ? C
   H57        1.0     0.894680     0.758166     0.746963    Uiso  ? H
   C116       1.0     0.875156     0.783181     0.730290    Uiso  ? C
   H58        1.0     0.876122     0.774989     0.714316    Uiso  ? H
   C117       1.0     0.862948     0.803290     0.732929    Uiso  ? C
   H59        1.0     0.852291     0.809121     0.718252    Uiso  ? H
   C118       1.0     0.860368     0.813618     0.754781    Uiso  ? C
   C119       1.0     0.871114     0.803344     0.773815    Uiso  ? C
   H60        1.0     0.868728     0.812479     0.790453    Uiso  ? H
   C120       1.0     0.843840     0.832506     0.758325    Uiso  ? C
   C121       1.0     0.885955     0.742259     0.841057    Uiso  ? C
   C122       1.0     0.864167     0.732916     0.850581    Uiso  ? C
   C123       1.0     0.860189     0.709478     0.849443    Uiso  ? C
   H61        1.0     0.874030     0.697937     0.843574    Uiso  ? H
   C124       1.0     0.840801     0.698883     0.859996    Uiso  ? C
   H62        1.0     0.838603     0.679766     0.861033    Uiso  ? H
   C125       1.0     0.823733     0.714198     0.869130    Uiso  ? C
   H63        1.0     0.808845     0.706941     0.876790    Uiso  ? H
   C126       1.0     0.827113     0.738210     0.869735    Uiso  ? C
   C127       1.0     0.847283     0.746901     0.860391    Uiso  ? C
   H64        1.0     0.850213     0.765274     0.861124    Uiso  ? H
   C128       1.0     0.810783     0.753781     0.881377    Uiso  ? C
   C129       1.0     0.209255     0.815765     0.192231    Uiso  ? C
   C130       1.0     0.215319     0.833004     0.209089    Uiso  ? C
   C131       1.0     0.235295     0.831106     0.221436    Uiso  ? C
   H65        1.0     0.245946     0.815156     0.220586    Uiso  ? H
   C132       1.0     0.240222     0.846002     0.239200    Uiso  ? C
   H66        1.0     0.255623     0.844761     0.248771    Uiso  ? H
   C133       1.0     0.226316     0.865459     0.242745    Uiso  ? C
   H67        1.0     0.231505     0.877141     0.256312    Uiso  ? H
   C134       1.0     0.206325     0.869519     0.229326    Uiso  ? C
   C135       1.0     0.201976     0.854219     0.211554    Uiso  ? C
   H68        1.0     0.185807     0.855626     0.203522    Uiso  ? H
   C136       1.0     0.192267     0.890570     0.232998    Uiso  ? C
   C137       1.0     0.228831     0.804101     0.139918    Uiso  ? C
   C138       1.0     0.247578     0.811496     0.123447    Uiso  ? C
   C139       1.0     0.270026     0.803423     0.125354    Uiso  ? C
   H69        1.0     0.275215     0.790391     0.139388    Uiso  ? H
   C140       1.0     0.286663     0.809748     0.108922    Uiso  ? C
   H70        1.0     0.304453     0.804434     0.109995    Uiso  ? H
   C141       1.0     0.280300     0.822369     0.890069    Uiso  ? C
   H71        1.0     0.292086     0.824819     0.875287    Uiso  ? H
   C142       1.0     0.258721     0.832436     0.889839    Uiso  ? C
   C143       1.0     0.241847     0.828126     0.106432    Uiso  ? C
   H72        1.0     0.224399     0.835242     0.103932    Uiso  ? H
   C144       1.0     0.253451     0.846896     0.869194    Uiso  ? C
   C145       1.0     0.164502     0.773995     0.189524    Uiso  ? C
   C146       1.0     0.144912     0.766761     0.204811    Uiso  ? C
   C147       1.0     0.146503     0.748022     0.219907    Uiso  ? C
   H73        1.0     0.161122     0.737294     0.220782    Uiso  ? H
   C148       1.0     0.129023     0.743196     0.235846    Uiso  ? C
   H74        1.0     0.130660     0.728403     0.245539    Uiso  ? H
   C149       1.0     0.110318     0.757674     0.237437    Uiso  ? C
   H75        1.0     0.892744     0.754357     0.251252    Uiso  ? H
   C150       1.0     0.108867     0.777212     0.223083    Uiso  ? C
   C151       1.0     0.125518     0.780567     0.206018    Uiso  ? C
   H76        1.0     0.123850     0.795090     0.195365    Uiso  ? H
   C152       1.0     0.882678     0.791369     0.224920    Uiso  ? C
   C153       1.0     0.257801     0.111287     0.853953    Uiso  ? C
   C154       1.0     0.267303     0.133519     0.862353    Uiso  ? C
   C155       1.0     0.289971     0.140325     0.857563    Uiso  ? C
   H77        1.0     0.301902     0.128927     0.848116    Uiso  ? H
   C156       1.0     0.298326     0.161673     0.865440    Uiso  ? C
   H78        1.0     0.315890     0.167710     0.860355    Uiso  ? H
   C157       1.0     0.283890     0.176783     0.877454    Uiso  ? C
   H79        1.0     0.291624     0.192745     0.885627    Uiso  ? H
   C158       1.0     0.260695     0.170620     0.881111    Uiso  ? C
   C159       1.0     0.251854     0.149778     0.871482    Uiso  ? C
   H80        1.0     0.233352     0.147913     0.869927    Uiso  ? H
   C160       1.0     0.243552     0.186012     0.891820    Uiso  ? C
   C161       1.0     0.228149     0.894802     0.803177    Uiso  ? C
   C162       1.0     0.223150     0.115099     0.783206    Uiso  ? C
   C163       1.0     0.237148     0.116443     0.762693    Uiso  ? C
   H81        1.0     0.251782     0.104277     0.761236    Uiso  ? H
   C164       1.0     0.229359     0.129613     0.744000    Uiso  ? C
   H82        1.0     0.238684     0.129923     0.727784    Uiso  ? H
   C165       1.0     0.208427     0.141766     0.745441    Uiso  ? C
   H83        1.0     0.201779     0.152691     0.731807    Uiso  ? H
   C166       1.0     0.193929     0.139291     0.764627    Uiso  ? C
   C167       1.0     0.201486     0.126998     0.783810    Uiso  ? C
   H84        1.0     0.192009     0.128626     0.800790    Uiso  ? H
   C168       1.0     0.173863     0.154761     0.768632    Uiso  ? C
   C169       1.0     0.872212     0.844469     0.253596    Uiso  ? C
   C170       1.0     0.886566     0.860863     0.267444    Uiso  ? C
   C171       1.0     0.884074     0.861027     0.291351    Uiso  ? C
   H85        1.0     0.869675     0.853773     0.299902    Uiso  ? H
   C172       1.0     0.104486     0.873197     0.305426    Uiso  ? C
   H86        1.0     0.103864     0.870023     0.323640    Uiso  ? H
   C173       1.0     0.121852     0.886094     0.294540    Uiso  ? C
   H87        1.0     0.134206     0.894724     0.304976    Uiso  ? H
   C174       1.0     0.123455     0.888172     0.270474    Uiso  ? C
   C175       1.0     0.107694     0.874946     0.256678    Uiso  ? C
   H88        1.0     0.108713     0.875141     0.238355    Uiso  ? H
   C176       1.0     0.141588     0.107691     0.259249    Uiso  ? C
   C177       1.0     0.824136     0.788582     0.209283    Uiso  ? C
   C178       1.0     0.809501     0.771776     0.195191    Uiso  ? C
   C179       1.0     0.801256     0.751360     0.205169    Uiso  ? C
   H89        1.0     0.802892     0.749610     0.223616    Uiso  ? H
   C180       1.0     0.787024     0.736038     0.191595    Uiso  ? C
   H90        1.0     0.780080     0.721276     0.199593    Uiso  ? H
   C181       1.0     0.782641     0.740371     0.168926    Uiso  ? C
   H91        1.0     0.770938     0.729689     0.158693    Uiso  ? H
   C182       1.0     0.792070     0.760292     0.158890    Uiso  ? C
   C183       1.0     0.805270     0.775605     0.172346    Uiso  ? C
   H92        1.0     0.811448     0.791407     0.164279    Uiso  ? H
   C184       1.0     0.785836     0.767001     0.134685    Uiso  ? C
   C185       1.0     0.769160     0.793666     0.855376    Uiso  ? C
   C186       1.0     0.765364     0.799632     0.830201    Uiso  ? C
   C187       1.0     0.747398     0.789185     0.816689    Uiso  ? C
   H93        1.0     0.737788     0.774416     0.823350    Uiso  ? H
   C188       1.0     0.741897     0.797369     0.795133    Uiso  ? C
   H94        1.0     0.727950     0.788644     0.785761    Uiso  ? H
   C189       1.0     0.755196     0.815366     0.784895    Uiso  ? C
   H95        1.0     0.748401     0.823919     0.770610    Uiso  ? H
   C190       1.0     0.773309     0.825273     0.797134    Uiso  ? C
   C191       1.0     0.777647     0.818055     0.820571    Uiso  ? C
   H96        1.0     0.791404     0.825901     0.831724    Uiso  ? H
   C192       1.0     0.789178     0.840989     0.786162    Uiso  ? C
   O55        1.0     0.139426     0.762886     0.857085    Uiso  ? O
   O56        1.0     0.147856     0.730077     0.836611    Uiso  ? O
   O57        1.0     0.148016     0.789274     0.822646    Uiso  ? O
   O58        1.0     0.156314     0.757020     0.802595    Uiso  ? O
   O59        1.0     0.104977     0.786912     0.807337    Uiso  ? O
   O60        1.0     0.112850     0.753186     0.788892    Uiso  ? O
   O61        1.0     0.891739     0.763546     0.846496    Uiso  ? O
   O62        1.0     0.104017     0.730661     0.828202    Uiso  ? O
   O63        1.0     0.191115     0.819951     0.178141    Uiso  ? O
   O64        1.0     0.218603     0.794974     0.192117    Uiso  ? O
   O65        1.0     0.207312     0.811744     0.137769    Uiso  ? O
   O66        1.0     0.233663     0.787405     0.154868    Uiso  ? O
   O67        1.0     0.175364     0.781512     0.132823    Uiso  ? O
   O68        1.0     0.201431     0.756318     0.147220    Uiso  ? O
   O69        1.0     0.160266     0.789623     0.173392    Uiso  ? O
   O70        1.0     0.184987     0.765828     0.192014    Uiso  ? O
   O71        1.0     0.235775     0.105605     0.857958    Uiso  ? O
   O72        1.0     0.269646     0.892702     0.841876    Uiso  ? O
   O73        1.0     0.213861     0.892515     0.820756    Uiso  ? O
   O74        1.0     0.249452     0.886446     0.804535    Uiso  ? O
   O75        1.0     0.212047     0.849196     0.832920    Uiso  ? O
   O76        1.0     0.244974     0.842368     0.812644    Uiso  ? O
   O77        1.0     0.234770     0.859945     0.868845    Uiso  ? O
   O78        1.0     0.266990     0.847686     0.851217    Uiso  ? O
   O79        1.0     0.873116     0.845655     0.231582    Uiso  ? O
   O80        1.0     0.862261     0.827344     0.264906    Uiso  ? O
   O81        1.0     0.876015     0.804745     0.208996    Uiso  ? O
   O82        1.0     0.871340     0.790154     0.243927    Uiso  ? O
   O83        1.0     0.834175     0.806313     0.199144    Uiso  ? O
   O84        1.0     0.828703     0.785526     0.231117    Uiso  ? O
   O85        1.0     0.829127     0.846043     0.214748    Uiso  ? O
   O86        1.0     0.819199     0.828476     0.248990    Uiso  ? O
   O87        1.0     0.797477     0.783700     0.124081    Uiso  ? O
   O88        1.0     0.768149     0.757149     0.123606    Uiso  ? O
   O89        1.0     0.815665     0.775819     0.883872    Uiso  ? O
   O90        1.0     0.788745     0.746758     0.884196    Uiso  ? O
   O91        1.0     0.785497     0.803287     0.868029    Uiso  ? O
   O92        1.0     0.758225     0.776028     0.863977    Uiso  ? O
   O93        1.0     0.770909     0.812146     0.107203    Uiso  ? O
   O94        1.0     0.741964     0.784477     0.105333    Uiso  ? O
   O95        1.0     0.142678     0.152999     0.227656    Uiso  ? O
   O96        1.0     0.163207     0.162356     0.259660    Uiso  ? O
   O97        1.0     0.180687     0.147733     0.205258    Uiso  ? O
   O98        1.0     0.200478     0.149715     0.238879    Uiso  ? O
   O99        1.0     0.179873     0.103296     0.217053    Uiso  ? O
   O100       1.0     0.194337     0.107069     0.252490    Uiso  ? O
   O101       1.0     0.140938     0.110087     0.237111    Uiso  ? O
   O102       1.0     0.158056     0.118321     0.270706    Uiso  ? O
   O103       1.0     0.114531     0.804224     0.851128    Uiso  ? O
   O104       1.0     0.161509     0.826901     0.143110    Uiso  ? O
   O105       1.0     0.192481     0.877405     0.862036    Uiso  ? O
   O106       1.0     0.863397     0.841909     0.184055    Uiso  ? O
   O107       1.0     0.814583     0.819121     0.899543    Uiso  ? O
   O108       1.0     0.142762     0.119695     0.192364    Uiso  ? O
   Zn13       1.0     0.121362     0.778337     0.834499    Uiso  ? Zn
   Zn14       1.0     0.130597     0.739455     0.811757    Uiso  ? Zn
   Zn15       1.0     0.181913     0.802952     0.153808    Uiso  ? Zn
   Zn16       1.0     0.211427     0.772268     0.172579    Uiso  ? Zn
   Zn17       1.0     0.220056     0.875184     0.845937    Uiso  ? Zn
   Zn18       1.0     0.262050     0.866839     0.826123    Uiso  ? Zn
   Zn19       1.0     0.854905     0.827406     0.210453    Uiso  ? Zn
   Zn20       1.0     0.843443     0.806105     0.249984    Uiso  ? Zn
   Zn21       1.0     0.793932     0.794985     0.895437    Uiso  ? Zn
   Zn22       1.0     0.762663     0.762456     0.893306    Uiso  ? Zn
   Zn23       1.0     0.159096     0.127244     0.218639    Uiso  ? Zn
   Zn24       1.0     0.181009     0.135985     0.259004    Uiso  ? Zn
   H97        1.0     0.147345     0.817879     0.139594    Uiso  ? H
   H98        1.0     0.167983     0.831228     0.127769    Uiso  ? H
   H99        1.0     0.815420     0.154831     0.863480    Uiso  ? H
   H100       1.0     0.833814     0.163338     0.846855    Uiso  ? H
   H101       1.0     0.835179     0.870825     0.823243    Uiso  ? H
   H102       1.0     0.838560     0.895606     0.811189    Uiso  ? H
   H103       1.0     0.118945     0.164472     0.830213    Uiso  ? H
   H104       1.0     0.144116     0.153709     0.827688    Uiso  ? H
   H105       1.0     0.139348     0.134972     0.184885    Uiso  ? H
   H106       1.0     0.154223     0.112131     0.182275    Uiso  ? H
   H107       1.0     0.880022     0.192966     0.136872    Uiso  ? H
   H108       1.0     0.889080     0.181705     0.160126    Uiso  ? H
   H109       1.0     0.171317     0.172054     0.892700    Uiso  ? H
   H110       1.0     0.181020     0.158210     0.111540    Uiso  ? H
   H111       1.0     0.856782     0.834921     0.171005    Uiso  ? H
   H112       1.0     0.880302     0.843493     0.181879    Uiso  ? H
   H113       1.0     0.793415     0.112603     0.124709    Uiso  ? H
   H114       1.0     0.804875     0.105384     0.148092    Uiso  ? H
   H115       1.0     0.822452     0.820065     0.884557    Uiso  ? H
   H116       1.0     0.826806     0.814743     0.108995    Uiso  ? H
   H117       1.0     0.189979     0.860779     0.865575    Uiso  ? H
   H118       1.0     0.180000     0.880846     0.851191    Uiso  ? H
   H119       1.0     0.114371     0.816933     0.840591    Uiso  ? H
   H120       1.0     0.128335     0.808124     0.860869    Uiso  ? H
   C193       1.0     0.804255     0.373337     0.491174    Uiso  ? C
   C194       1.0     0.786928     0.376348     0.510928    Uiso  ? C
   C195       1.0     0.770422     0.359012     0.514381    Uiso  ? C
   H121       1.0     0.770344     0.342807     0.505523    Uiso  ? H
   C196       1.0     0.753334     0.363252     0.530888    Uiso  ? C
   H122       1.0     0.740956     0.351642     0.533423    Uiso  ? H
   C197       1.0     0.753017     0.383762     0.543201    Uiso  ? C
   H123       1.0     0.740073     0.387789     0.555980    Uiso  ? H
   C198       1.0     0.770541     0.400678     0.540193    Uiso  ? C
   C199       1.0     0.787482     0.397222     0.523810    Uiso  ? C
   H124       1.0     0.799536     0.410692     0.520107    Uiso  ? H
   C200       1.0     0.769504     0.422501     0.553817    Uiso  ? C
   C201       1.0     0.803011     0.396642     0.436357    Uiso  ? C
   C202       1.0     0.789299     0.411005     0.420024    Uiso  ? C
   C203       1.0     0.777884     0.401099     0.401411    Uiso  ? C
   H125       1.0     0.779204     0.383101     0.397864    Uiso  ? H
   C204       1.0     0.762612     0.414413     0.388984    Uiso  ? C
   H126       1.0     0.752090     0.406892     0.374566    Uiso  ? H
   C205       1.0     0.760874     0.438063     0.391780    Uiso  ? C
   H127       1.0     0.752147     0.448298     0.378261    Uiso  ? H
   C206       1.0     0.771554     0.448648     0.410710    Uiso  ? C
   C207       1.0     0.787822     0.434921     0.423799    Uiso  ? C
   H128       1.0     0.798871     0.441112     0.437076    Uiso  ? H
   C208       1.0     0.769378     0.473479     0.414448    Uiso  ? C
   C209       1.0     0.857150     0.370365     0.423432    Uiso  ? C
   C210       1.0     0.871942     0.370177     0.402772    Uiso  ? C
   C211       1.0     0.866151     0.358346     0.382991    Uiso  ? C
   H129       1.0     0.848805     0.351618     0.381678    Uiso  ? H
   C212       1.0     0.881194     0.357532     0.364126    Uiso  ? C
   H130       1.0     0.875867     0.347160     0.348491    Uiso  ? H
   C213       1.0     0.106549     0.370025     0.365003    Uiso  ? C
   H131       1.0     0.117227     0.372652     0.349158    Uiso  ? H
   C214       1.0     0.111594     0.382795     0.385037    Uiso  ? C
   C215       1.0     0.892788     0.382115     0.404123    Uiso  ? C
   H132       1.0     0.897703     0.388461     0.420778    Uiso  ? H
   C216       1.0     0.133915     0.395710     0.385427    Uiso  ? C
   C217       1.0     0.856449     0.347492     0.480133    Uiso  ? C
   C218       1.0     0.871898     0.332135     0.494713    Uiso  ? C
   C219       1.0     0.864084     0.311068     0.502724    Uiso  ? C
   H133       1.0     0.848106     0.305132     0.496941    Uiso  ? H
   C220       1.0     0.877492     0.299213     0.518119    Uiso  ? C
   H134       1.0     0.870788     0.282940     0.524735    Uiso  ? H
   C221       1.0     0.102744     0.309693     0.527687    Uiso  ? C
   H135       1.0     0.114748     0.299329     0.537834    Uiso  ? H
   C222       1.0     0.109864     0.331290     0.519932    Uiso  ? C
   C223       1.0     0.891858     0.342807     0.503827    Uiso  ? C
   H136       1.0     0.896202     0.358859     0.497390    Uiso  ? H
   C224       1.0     0.131490     0.341678     0.528811    Uiso  ? C
   C225       1.0     0.764663     0.496444     0.595611    Uiso  ? C
   C226       1.0     0.764056     0.517231     0.610039    Uiso  ? C
   C227       1.0     0.748898     0.518511     0.628521    Uiso  ? C
   H137       1.0     0.734697     0.505861     0.631584    Uiso  ? H
   C228       1.0     0.750385     0.536646     0.643803    Uiso  ? C
   H138       1.0     0.740445     0.539133     0.659498    Uiso  ? H
   C229       1.0     0.766864     0.553403     0.640929    Uiso  ? C
   H139       1.0     0.767899     0.567529     0.653854    Uiso  ? H
   C230       1.0     0.782539     0.552445     0.622694    Uiso  ? C
   C231       1.0     0.781345     0.533702     0.607316    Uiso  ? C
   H140       1.0     0.794572     0.530013     0.595791    Uiso  ? H
   C232       1.0     0.803334     0.567669     0.622935    Uiso  ? C
   C233       1.0     0.746575     0.475698     0.541227    Uiso  ? C
   C234       1.0     0.733008     0.485236     0.520529    Uiso  ? C
   C235       1.0     0.708978     0.485753     0.521667    Uiso  ? C
   H141       1.0     0.701126     0.481936     0.537353    Uiso  ? H
   C236       1.0     0.696800     0.488816     0.501642    Uiso  ? C
   H142       1.0     0.678449     0.486142     0.502979    Uiso  ? H
   C237       1.0     0.708058     0.493363     0.480917    Uiso  ? C
   H143       1.0     0.698760     0.496646     0.464340    Uiso  ? H
   C238       1.0     0.732740     0.496081     0.480385    Uiso  ? C
   C239       1.0     0.744665     0.492461     0.501180    Uiso  ? C
   H144       1.0     0.763837     0.492847     0.501492    Uiso  ? H
   C240       1.0     0.744185     0.502805     0.458773    Uiso  ? C
   C241       1.0     0.790873     0.441953     0.606431    Uiso  ? C
   C242       1.0     0.803886     0.431338     0.625237    Uiso  ? C
   C243       1.0     0.792353     0.418216     0.643037    Uiso  ? C
   H145       1.0     0.775145     0.412375     0.640554    Uiso  ? H
   C244       1.0     0.802994     0.412953     0.663633    Uiso  ? C
   H146       1.0     0.793684     0.403388     0.678351    Uiso  ? H
   C245       1.0     0.826121     0.420066     0.666879    Uiso  ? C
   H147       1.0     0.833917     0.417448     0.683830    Uiso  ? H
   C246       1.0     0.839445     0.430608     0.648678    Uiso  ? C
   C247       1.0     0.826801     0.438179     0.628973    Uiso  ? C
   H148       1.0     0.836156     0.445822     0.615843    Uiso  ? H
   C248       1.0     0.863960     0.435728     0.651524    Uiso  ? C
   C249       1.0     0.762158     0.555365     0.434031    Uiso  ? C
   C250       1.0     0.760436     0.579294     0.443508    Uiso  ? C
   C251       1.0     0.740948     0.591462     0.438300    Uiso  ? C
   H149       1.0     0.726638     0.583460     0.428748    Uiso  ? H
   C252       1.0     0.740459     0.615247     0.443912    Uiso  ? C
   H150       1.0     0.724428     0.624871     0.442191    Uiso  ? H
   C253       1.0     0.759857     0.627088     0.452000    Uiso  ? C
   H151       1.0     0.759148     0.645687     0.454550    Uiso  ? H
   C254       1.0     0.779392     0.614173     0.457296    Uiso  ? C
   C255       1.0     0.779017     0.590302     0.454533    Uiso  ? C
   H152       1.0     0.793501     0.580269     0.457817    Uiso  ? H
   C256       1.0     0.801039     0.626353     0.463548    Uiso  ? C
   C257       1.0     0.785708     0.522289     0.386580    Uiso  ? C
   C258       1.0     0.797967     0.528662     0.365462    Uiso  ? C
   C259       1.0     0.785639     0.533048     0.345465    Uiso  ? C
   H153       1.0     0.767493     0.529792     0.343549    Uiso  ? H
   C260       1.0     0.797691     0.540583     0.325487    Uiso  ? C
   H154       1.0     0.786400     0.542719     0.309007    Uiso  ? H
   C261       1.0     0.820293     0.547090     0.327440    Uiso  ? C
   H155       1.0     0.828466     0.555722     0.313725    Uiso  ? H
   C262       1.0     0.833339     0.541432     0.347342    Uiso  ? C
   C263       1.0     0.821793     0.533725     0.366497    Uiso  ? C
   H156       1.0     0.830370     0.530888     0.382760    Uiso  ? H
   C264       1.0     0.857005     0.550978     0.350818    Uiso  ? C
   C265       1.0     0.892457     0.485822     0.669804    Uiso  ? C
   C266       1.0     0.883651     0.508403     0.678305    Uiso  ? C
   C267       1.0     0.882020     0.513628     0.701497    Uiso  ? C
   H157       1.0     0.885732     0.501006     0.714119    Uiso  ? H
   C268       1.0     0.872540     0.534665     0.709258    Uiso  ? C
   H158       1.0     0.870125     0.536360     0.727417    Uiso  ? H
   C269       1.0     0.864998     0.551727     0.692621    Uiso  ? C
   H159       1.0     0.854638     0.568276     0.698949    Uiso  ? H
   C270       1.0     0.866981     0.546094     0.669312    Uiso  ? C
   C271       1.0     0.876861     0.525305     0.662116    Uiso  ? C
   H160       1.0     0.877168     0.521259     0.642457    Uiso  ? H
   C272       1.0     0.856199     0.561656     0.651762    Uiso  ? C
   C273       1.0     0.123754     0.408335     0.642694    Uiso  ? C
   C274       1.0     0.133580     0.386580     0.633791    Uiso  ? C
   C275       1.0     0.140064     0.369097     0.649398    Uiso  ? C
   H161       1.0     0.137431     0.372466     0.668323    Uiso  ? H
   C276       1.0     0.151019     0.349150     0.642000    Uiso  ? C
   H162       1.0     0.155176     0.335678     0.654799    Uiso  ? H
   C277       1.0     0.155215     0.347071     0.618668    Uiso  ? C
   H163       1.0     0.161482     0.331502     0.612412    Uiso  ? H
   C278       1.0     0.150621     0.364902     0.602804    Uiso  ? C
   C279       1.0     0.138391     0.384826     0.610160    Uiso  ? C
   H164       1.0     0.131341     0.397058     0.598206    Uiso  ? H
   C280       1.0     0.157186     0.361732     0.578453    Uiso  ? C
   C281       1.0     0.183426     0.355352     0.497497    Uiso  ? C
   C282       1.0     0.192207     0.354543     0.473220    Uiso  ? C
   C283       1.0     0.207867     0.337481     0.467262    Uiso  ? C
   H165       1.0     0.213039     0.323857     0.478206    Uiso  ? H
   C284       1.0     0.217926     0.339262     0.445147    Uiso  ? C
   H166       1.0     0.231625     0.327976     0.440121    Uiso  ? H
   C285       1.0     0.211959     0.356767     0.428824    Uiso  ? C
   H167       1.0     0.221704     0.357904     0.412474    Uiso  ? H
   C286       1.0     0.196314     0.373908     0.435577    Uiso  ? C
   C287       1.0     0.185662     0.371672     0.457810    Uiso  ? C
   H168       1.0     0.170130     0.382909     0.461218    Uiso  ? H
   C288       1.0     0.186766     0.390875     0.419382    Uiso  ? C
   O109       1.0     0.822325     0.387656     0.489081    Uiso  ? O
   O110       1.0     0.800231     0.356836     0.475781    Uiso  ? O
   O111       1.0     0.820121     0.405168     0.447915    Uiso  ? O
   O112       1.0     0.799727     0.374371     0.436060    Uiso  ? O
   O113       1.0     0.859421     0.385845     0.439599    Uiso  ? O
   O114       1.0     0.840344     0.355911     0.424329    Uiso  ? O
   O115       1.0     0.858902     0.369666     0.479925    Uiso  ? O
   O116       1.0     0.840030     0.337832     0.466597    Uiso  ? O
   O117       1.0     0.782955     0.491574     0.584213    Uiso  ? O
   O118       1.0     0.747436     0.482518     0.594917    Uiso  ? O
   O119       1.0     0.769045     0.477955     0.541955    Uiso  ? O
   O120       1.0     0.734918     0.464704     0.557284    Uiso  ? O
   O121       1.0     0.786417     0.437625     0.551819    Uiso  ? O
   O122       1.0     0.751774     0.427077     0.566154    Uiso  ? O
   O123       1.0     0.801082     0.451604     0.589947    Uiso  ? O
   O124       1.0     0.768078     0.441126     0.606063    Uiso  ? O
   O125       1.0     0.781616     0.544857     0.438655    Uiso  ? O
   O126       1.0     0.744915     0.544843     0.424101    Uiso  ? O
   O127       1.0     0.796612     0.520047     0.405721    Uiso  ? O
   O128       1.0     0.763183     0.521340     0.386503    Uiso  ? O
   O129       1.0     0.785064     0.483256     0.427716    Uiso  ? O
   O130       1.0     0.752292     0.485236     0.405034    Uiso  ? O
   O131       1.0     0.766679     0.508268     0.459117    Uiso  ? O
   O132       1.0     0.732326     0.505419     0.439587    Uiso  ? O
   O133       1.0     0.895080     0.482354     0.647332    Uiso  ? O
   O134       1.0     0.896171     0.468533     0.684821    Uiso  ? O
   O135       1.0     0.875055     0.447480     0.635453    Uiso  ? O
   O136       1.0     0.875896     0.428972     0.668757    Uiso  ? O
   O137       1.0     0.118432     0.424884     0.627839    Uiso  ? O
   O138       1.0     0.120650     0.411272     0.664848    Uiso  ? O
   O139       1.0     0.138595     0.464628     0.640815    Uiso  ? O
   O140       1.0     0.139921     0.449634     0.677680    Uiso  ? O
   O141       1.0     0.151312     0.377227     0.563700    Uiso  ? O
   O142       1.0     0.167792     0.342755     0.572403    Uiso  ? O
   O143       1.0     0.135335     0.363646     0.523068    Uiso  ? O
   O144       1.0     0.148666     0.329034     0.535593    Uiso  ? O
   O145       1.0     0.172733     0.374039     0.504641    Uiso  ? O
   O146       1.0     0.186942     0.337053     0.512001    Uiso  ? O
   O147       1.0     0.186821     0.391179     0.542573    Uiso  ? O
   O148       1.0     0.203938     0.356237     0.548276    Uiso  ? O
   O149       1.0     0.872985     0.595246     0.609302    Uiso  ? O
   O150       1.0     0.858760     0.618614     0.638323    Uiso  ? O
   O151       1.0     0.836591     0.599623     0.587619    Uiso  ? O
   O152       1.0     0.818756     0.619533     0.617146    Uiso  ? O
   O153       1.0     0.818970     0.565377     0.606157    Uiso  ? O
   O154       1.0     0.806079     0.583564     0.639738    Uiso  ? O
   O155       1.0     0.857328     0.556585     0.629674    Uiso  ? O
   O156       1.0     0.846380     0.581733     0.657110    Uiso  ? O
   O157       1.0     0.856658     0.415623     0.475987    Uiso  ? O
   O158       1.0     0.815767     0.477229     0.552884    Uiso  ? O
   O159       1.0     0.814756     0.513599     0.451273    Uiso  ? O
   O160       1.0     0.108029     0.465946     0.604845    Uiso  ? O
   O161       1.0     0.146077     0.407369     0.525820    Uiso  ? O
   O162       1.0     0.859513     0.558445     0.582959    Uiso  ? O
   Zn25       1.0     0.841711     0.389857     0.465879    Uiso  ? Zn
   Zn26       1.0     0.818998     0.352909     0.449698    Uiso  ? Zn
   Zn27       1.0     0.788360     0.466497     0.564936    Uiso  ? Zn
   Zn28       1.0     0.747774     0.452667     0.584439    Uiso  ? Zn
   Zn29       1.0     0.787188     0.514101     0.435903    Uiso  ? Zn
   Zn30       1.0     0.745683     0.514756     0.412096    Uiso  ? Zn
   Zn31       1.0     0.109301     0.455266     0.634666    Uiso  ? Zn
   Zn32       1.0     0.109872     0.438463     0.677390    Uiso  ? Zn
   Zn33       1.0     0.159957     0.379693     0.532887    Uiso  ? Zn
   Zn34       1.0     0.178810     0.336665     0.542861    Uiso  ? Zn
   Zn35       1.0     0.847745     0.576105     0.605233    Uiso  ? Zn
   Zn36       1.0     0.830361     0.603947     0.641507    Uiso  ? Zn
   C289       1.0     0.203543     0.634402     0.516334    Uiso  ? C
   C290       1.0     0.220927     0.632502     0.498218    Uiso  ? C
   C291       1.0     0.236622     0.650355     0.491694    Uiso  ? C
   H169       1.0     0.233452     0.668004     0.497259    Uiso  ? H
   C292       1.0     0.253195     0.646945     0.475497    Uiso  ? C
   H170       1.0     0.265297     0.660647     0.472019    Uiso  ? H
   C293       1.0     0.255948     0.626232     0.463717    Uiso  ? C
   H171       1.0     0.271051     0.623526     0.451722    Uiso  ? H
   C294       1.0     0.240230     0.608184     0.468942    Uiso  ? C
   C295       1.0     0.222546     0.611122     0.485181    Uiso  ? C
   H172       1.0     0.211322     0.596051     0.489521    Uiso  ? H
   C296       1.0     0.242318     0.586093     0.456209    Uiso  ? C
   C297       1.0     0.206278     0.611380     0.570767    Uiso  ? C
   C298       1.0     0.223921     0.596832     0.583028    Uiso  ? C
   C299       1.0     0.240336     0.607557     0.597150    Uiso  ? C
   H173       1.0     0.241488     0.626565     0.598486    Uiso  ? H
   C300       1.0     0.255758     0.593645     0.609465    Uiso  ? C
   H174       1.0     0.269867     0.602341     0.618114    Uiso  ? H
   C301       1.0     0.255192     0.570193     0.607922    Uiso  ? C
   H175       1.0     0.270005     0.560421     0.616348    Uiso  ? H
   C302       1.0     0.238645     0.559278     0.594969    Uiso  ? C
   C303       1.0     0.222534     0.572875     0.581664    Uiso  ? C
   H176       1.0     0.211272     0.564839     0.568016    Uiso  ? H
   C304       1.0     0.240234     0.534407     0.591842    Uiso  ? C
   C305       1.0     0.152429     0.636308     0.584408    Uiso  ? C
   C306       1.0     0.136288     0.638695     0.604672    Uiso  ? C
   C307       1.0     0.139500     0.656084     0.621599    Uiso  ? C
   H177       1.0     0.152286     0.668873     0.621089    Uiso  ? H
   C308       1.0     0.124098     0.657946     0.640891    Uiso  ? C
   H178       1.0     0.128554     0.668725     0.655043    Uiso  ? H
   C309       1.0     0.104816     0.642750     0.642815    Uiso  ? C
   H179       1.0     0.888336     0.641634     0.657183    Uiso  ? H
   C310       1.0     0.896561     0.626753     0.625144    Uiso  ? C
   C311       1.0     0.116937     0.624396     0.606566    Uiso  ? C
   H180       1.0     0.112332     0.613171     0.592484    Uiso  ? H
   C312       1.0     0.875423     0.612646     0.624171    Uiso  ? C
   C313       1.0     0.148992     0.660276     0.527413    Uiso  ? C
   C314       1.0     0.132631     0.675203     0.514705    Uiso  ? C
   C315       1.0     0.134645     0.699411     0.515825    Uiso  ? C
   H181       1.0     0.149472     0.708978     0.521487    Uiso  ? H
   C316       1.0     0.118543     0.712626     0.504063    Uiso  ? C
   H182       1.0     0.120515     0.730590     0.502855    Uiso  ? H
   C317       1.0     0.893712     0.703701     0.495302    Uiso  ? C
   H183       1.0     0.881496     0.714683     0.486964    Uiso  ? H
   C318       1.0     0.891786     0.679783     0.494163    Uiso  ? C
   C319       1.0     0.114241     0.665217     0.502974    Uiso  ? C
   H184       1.0     0.112788     0.647278     0.502427    Uiso  ? H
   C320       1.0     0.870229     0.667916     0.486848    Uiso  ? C
   C321       1.0     0.250118     0.512793     0.412664    Uiso  ? C
   C322       1.0     0.249382     0.492126     0.397395    Uiso  ? C
   C323       1.0     0.268690     0.484649     0.384416    Uiso  ? C
   H185       1.0     0.284956     0.493553     0.386178    Uiso  ? H
   C324       1.0     0.265487     0.466628     0.368759    Uiso  ? C
   H186       1.0     0.280166     0.462177     0.358521    Uiso  ? H
   C325       1.0     0.245551     0.453730     0.368771    Uiso  ? C
   H187       1.0     0.243752     0.439727     0.356404    Uiso  ? H
   C326       1.0     0.228489     0.457037     0.385112    Uiso  ? C
   C327       1.0     0.230178     0.477215     0.399561    Uiso  ? C
   H188       1.0     0.217024     0.479833     0.412444    Uiso  ? H
   C328       1.0     0.208326     0.440976     0.387241    Uiso  ? C
   C329       1.0     0.265375     0.533123     0.467118    Uiso  ? C
   C330       1.0     0.277142     0.522089     0.486008    Uiso  ? C
   C331       1.0     0.301046     0.514901     0.483854    Uiso  ? C
   H189       1.0     0.311221     0.518087     0.468045    Uiso  ? H
   C332       1.0     0.313692     0.506413     0.502802    Uiso  ? C
   H190       1.0     0.331409     0.502646     0.501442    Uiso  ? H
   C333       1.0     0.302263     0.503276     0.524296    Uiso  ? C
   H191       1.0     0.312838     0.498713     0.538763    Uiso  ? H
   C334       1.0     0.278590     0.506237     0.526198    Uiso  ? C
   C335       1.0     0.266112     0.516786     0.507116    Uiso  ? C
   H192       1.0     0.249903     0.522391     0.511347    Uiso  ? H
   C336       1.0     0.266053     0.500392     0.548359    Uiso  ? C
   C337       1.0     0.218858     0.568412     0.403514    Uiso  ? C
   C338       1.0     0.205358     0.579331     0.384877    Uiso  ? C
   C339       1.0     0.213792     0.595662     0.369655    Uiso  ? C
   H193       1.0     0.230646     0.601443     0.369517    Uiso  ? H
   C340       1.0     0.200157     0.604898     0.351294    Uiso  ? C
   H194       1.0     0.208030     0.617300     0.339613    Uiso  ? H
   C341       1.0     0.176859     0.598356     0.349613    Uiso  ? C
   H195       1.0     0.166559     0.606993     0.337066    Uiso  ? H
   C342       1.0     0.167490     0.583603     0.365422    Uiso  ? C
   C343       1.0     0.181088     0.573841     0.383317    Uiso  ? C
   H196       1.0     0.174271     0.560669     0.395359    Uiso  ? H
   C344       1.0     0.143048     0.574935     0.361915    Uiso  ? C
   C345       1.0     0.245697     0.450724     0.574784    Uiso  ? C
   C346       1.0     0.244677     0.425029     0.572479    Uiso  ? C
   C347       1.0     0.262165     0.411213     0.582548    Uiso  ? C
   H197       1.0     0.275318     0.419355     0.593345    Uiso  ? H
   C348       1.0     0.261648     0.386958     0.581305    Uiso  ? C
   H198       1.0     0.273375     0.378676     0.591123    Uiso  ? H
   C349       1.0     0.243399     0.375925     0.569024    Uiso  ? C
   H199       1.0     0.243739     0.356446     0.568744    Uiso  ? H
   C350       1.0     0.226532     0.389104     0.557752    Uiso  ? C
   C351       1.0     0.227424     0.413862     0.559446    Uiso  ? C
   H200       1.0     0.214508     0.424898     0.551462    Uiso  ? H
   C352       1.0     0.205719     0.378303     0.547922    Uiso  ? C
   C353       1.0     0.223612     0.483180     0.621256    Uiso  ? C
   C354       1.0     0.211087     0.476990     0.641931    Uiso  ? C
   C355       1.0     0.222075     0.475163     0.663835    Uiso  ? C
   H201       1.0     0.240655     0.477726     0.664587    Uiso  ? H
   C356       1.0     0.210333     0.469667     0.683661    Uiso  ? C
   H202       1.0     0.217711     0.469905     0.700131    Uiso  ? H
   C357       1.0     0.187205     0.464046     0.683199    Uiso  ? C
   H203       1.0     0.178710     0.460367     0.698956    Uiso  ? H
   C358       1.0     0.174959     0.465732     0.661845    Uiso  ? C
   C359       1.0     0.187092     0.471606     0.641779    Uiso  ? C
   H204       1.0     0.179468     0.471984     0.623813    Uiso  ? H
   C360       1.0     0.149875     0.460783     0.660273    Uiso  ? C
   C361       1.0     0.116738     0.521474     0.343649    Uiso  ? C
   C362       1.0     0.124938     0.497914     0.336816    Uiso  ? C
   C363       1.0     0.124992     0.491303     0.313635    Uiso  ? C
   H205       1.0     0.118620     0.503636     0.301231    Uiso  ? H
   C364       1.0     0.133662     0.470159     0.305850    Uiso  ? C
   H206       1.0     0.132160     0.466788     0.287186    Uiso  ? H
   C365       1.0     0.143004     0.454893     0.321632    Uiso  ? C
   H207       1.0     0.151706     0.439747     0.315321    Uiso  ? H
   C366       1.0     0.143840     0.462013     0.345244    Uiso  ? C
   C367       1.0     0.133775     0.482428     0.353070    Uiso  ? C
   H208       1.0     0.133780     0.488385     0.371137    Uiso  ? H
   C368       1.0     0.155374     0.446943     0.361356    Uiso  ? C
   C369       1.0     0.884933     0.598373     0.368544    Uiso  ? C
   C370       1.0     0.875753     0.621316     0.376894    Uiso  ? C
   C371       1.0     0.867792     0.639328     0.361420    Uiso  ? C
   H209       1.0     0.869117     0.637214     0.342714    Uiso  ? H
   C372       1.0     0.858161     0.659092     0.370293    Uiso  ? C
   H210       1.0     0.854474     0.672107     0.357732    Uiso  ? H
   C373       1.0     0.854028     0.662052     0.393916    Uiso  ? C
   H211       1.0     0.847597     0.677785     0.401378    Uiso  ? H
   C374       1.0     0.858462     0.643439     0.408691    Uiso  ? C
   C375       1.0     0.871031     0.623685     0.400505    Uiso  ? C
   H212       1.0     0.872156     0.610158     0.413076    Uiso  ? H
   C376       1.0     0.849635     0.644536     0.432716    Uiso  ? C
   C377       1.0     0.821496     0.649330     0.514688    Uiso  ? C
   C378       1.0     0.815030     0.651691     0.539253    Uiso  ? C
   C379       1.0     0.797684     0.668009     0.546328    Uiso  ? C
   H213       1.0     0.792531     0.680513     0.533641    Uiso  ? H
   C380       1.0     0.790629     0.668454     0.569038    Uiso  ? C
   H214       1.0     0.778855     0.682057     0.575605    Uiso  ? H
   C381       1.0     0.799299     0.651524     0.584581    Uiso  ? C
   H215       1.0     0.791744     0.652096     0.601980    Uiso  ? H
   C382       1.0     0.816233     0.635263     0.577759    Uiso  ? C
   C383       1.0     0.825251     0.636281     0.555462    Uiso  ? C
   H216       1.0     0.839086     0.625761     0.549781    Uiso  ? H
   C384       1.0     0.822970     0.617047     0.594432    Uiso  ? C
   O163       1.0     0.187016     0.618871     0.518163    Uiso  ? O
   O164       1.0     0.206606     0.651380     0.531829    Uiso  ? O
   O165       1.0     0.190368     0.602052     0.558114    Uiso  ? O
   O166       1.0     0.206858     0.634288     0.572108    Uiso  ? O
   O167       1.0     0.150020     0.620011     0.569277    Uiso  ? O
   O168       1.0     0.167394     0.652046     0.581159    Uiso  ? O
   O169       1.0     0.146883     0.637861     0.527781    Uiso  ? O
   O170       1.0     0.166266     0.669722     0.538197    Uiso  ? O
   O171       1.0     0.232349     0.516796     0.426062    Uiso  ? O
   O172       1.0     0.264334     0.530029     0.408094    Uiso  ? O
   O173       1.0     0.243155     0.530343     0.466326    Uiso  ? O
   O174       1.0     0.276409     0.542353     0.449991    Uiso  ? O
   O175       1.0     0.226085     0.570086     0.458057    Uiso  ? O
   O176       1.0     0.259352     0.582887     0.441392    Uiso  ? O
   O177       1.0     0.209553     0.555323     0.420024    Uiso  ? O
   O178       1.0     0.240826     0.571167     0.403595    Uiso  ? O
   O179       1.0     0.228401     0.463123     0.565902    Uiso  ? O
   O180       1.0     0.260906     0.460959     0.589052    Uiso  ? O
   O181       1.0     0.212832     0.486121     0.602206    Uiso  ? O
   O182       1.0     0.246227     0.484925     0.622138    Uiso  ? O
   O183       1.0     0.225712     0.523267     0.578677    Uiso  ? O
   O184       1.0     0.257948     0.522712     0.599314    Uiso  ? O
   O185       1.0     0.243293     0.501032     0.548834    Uiso  ? O
   O186       1.0     0.277784     0.495735     0.567961    Uiso  ? O
   O187       1.0     0.113153     0.525840     0.365270    Uiso  ? O
   O188       1.0     0.113632     0.537923     0.328964    Uiso  ? O
   O189       1.0     0.131615     0.564656     0.379049    Uiso  ? O
   O190       1.0     0.133660     0.576501     0.340988    Uiso  ? O
   O191       1.0     0.892005     0.583327     0.383041    Uiso  ? O
   O192       1.0     0.888284     0.594166     0.346020    Uiso  ? O
   O193       1.0     0.867656     0.548862     0.370523    Uiso  ? O
   O194       1.0     0.868819     0.558210     0.333233    Uiso  ? O
   O195       1.0     0.854020     0.627477     0.447394    Uiso  ? O
   O196       1.0     0.838677     0.663558     0.440183    Uiso  ? O
   O197       1.0     0.870453     0.645694     0.484634    Uiso  ? O
   O198       1.0     0.851571     0.679507     0.481428    Uiso  ? O
   O199       1.0     0.833150     0.631357     0.508203    Uiso  ? O
   O200       1.0     0.814397     0.663945     0.498570    Uiso  ? O
   O201       1.0     0.818314     0.614660     0.470313    Uiso  ? O
   O202       1.0     0.801713     0.648737     0.461636    Uiso  ? O
   O203       1.0     0.137396     0.411110     0.402008    Uiso  ? O
   O204       1.0     0.149610     0.392309     0.369513    Uiso  ? O
   O205       1.0     0.176186     0.409044     0.426457    Uiso  ? O
   O206       1.0     0.188760     0.387197     0.397243    Uiso  ? O
   O207       1.0     0.191598     0.445413     0.403264    Uiso  ? O
   O208       1.0     0.205186     0.423554     0.372929    Uiso  ? O
   O209       1.0     0.152614     0.449913     0.383628    Uiso  ? O
   O210       1.0     0.166476     0.428815     0.353515    Uiso  ? O
   O211       1.0     0.152259     0.589572     0.533748    Uiso  ? O
   O212       1.0     0.197163     0.532641     0.456035    Uiso  ? O
   O213       1.0     0.195308     0.494923     0.559046    Uiso  ? O
   O214       1.0     0.894012     0.546124     0.407799    Uiso  ? O
   O215       1.0     0.861892     0.599491     0.486253    Uiso  ? O
   O216       1.0     0.155248     0.447050     0.431789    Uiso  ? O
   Zn37       1.0     0.166546     0.616222     0.542618    Uiso  ? Zn
   Zn38       1.0     0.188053     0.655317     0.557313    Uiso  ? Zn
   Zn39       1.0     0.224850     0.542666     0.443850    Uiso  ? Zn
   Zn40       1.0     0.263851     0.557679     0.423984    Uiso  ? Zn
   Zn41       1.0     0.223769     0.492851     0.572140    Uiso  ? Zn
   Zn42       1.0     0.263494     0.491836     0.596757    Uiso  ? Zn
   Zn43       1.0     0.897377     0.554207     0.377162    Uiso  ? Zn
   Zn44       1.0     0.104106     0.567776     0.333727    Uiso  ? Zn
   Zn45       1.0     0.846373     0.625763     0.478901    Uiso  ? Zn
   Zn46       1.0     0.826554     0.667056     0.468932    Uiso  ? Zn
   Zn47       1.0     0.163793     0.431110     0.407226    Uiso  ? Zn
   Zn48       1.0     0.179227     0.405058     0.371683    Uiso  ? Zn
   H217       1.0     0.185049     0.529858     0.444392    Uiso  ? H
   H218       1.0     0.201092     0.517134     0.463061    Uiso  ? H
   H219       1.0     0.812595     0.491862     0.544889    Uiso  ? H
   H220       1.0     0.818561     0.465818     0.541320    Uiso  ? H
   H221       1.0     0.846366     0.556338     0.572753    Uiso  ? H
   H222       1.0     0.869989     0.568252     0.573274    Uiso  ? H
   H223       1.0     0.890127     0.457171     0.598510    Uiso  ? H
   H224       1.0     0.102448     0.482502     0.602930    Uiso  ? H
   H225       1.0     0.138666     0.444241     0.433556    Uiso  ? H
   H226       1.0     0.155636     0.462992     0.426427    Uiso  ? H
   H227       1.0     0.871335     0.413871     0.467286    Uiso  ? H
   H228       1.0     0.860289     0.411681     0.491637    Uiso  ? H
   H229       1.0     0.159844     0.415193     0.519278    Uiso  ? H
   H230       1.0     0.136548     0.405018     0.511187    Uiso  ? H
   H231       1.0     0.111357     0.553592     0.416306    Uiso  ? H
   H232       1.0     0.880843     0.554868     0.413461    Uiso  ? H
   H233       1.0     0.812366     0.519821     0.466870    Uiso  ? H
   H234       1.0     0.816790     0.497184     0.454269    Uiso  ? H
   H235       1.0     0.853721     0.592886     0.499673    Uiso  ? H
   H236       1.0     0.858886     0.589785     0.473226    Uiso  ? H
   H237       1.0     0.188829     0.479826     0.561899    Uiso  ? H
   H238       1.0     0.198483     0.495213     0.542550    Uiso  ? H
   H239       1.0     0.137262     0.592192     0.526686    Uiso  ? H
   H240       1.0     0.150085     0.580744     0.548400    Uiso  ? H
   C385       1.0     0.649814     0.845246     0.469947    Uiso  ? C
   C386       1.0     0.656135     0.833634     0.490748    Uiso  ? C
   C387       1.0     0.676855     0.821934     0.492042    Uiso  ? C
   H241       1.0     0.691589     0.823710     0.479564    Uiso  ? H
   C388       1.0     0.680822     0.805906     0.509772    Uiso  ? C
   H242       1.0     0.696672     0.796427     0.510307    Uiso  ? H
   C389       1.0     0.665357     0.804909     0.527618    Uiso  ? C
   H243       1.0     0.670896     0.794101     0.542179    Uiso  ? H
   C390       1.0     0.645450     0.818897     0.528324    Uiso  ? C
   C391       1.0     0.640542     0.832619     0.509518    Uiso  ? C
   H244       1.0     0.623494     0.842463     0.508762    Uiso  ? H
   C392       1.0     0.627467     0.814419     0.546414    Uiso  ? C
   C393       1.0     0.618588     0.825023     0.424443    Uiso  ? C
   C394       1.0     0.609568     0.802460     0.417759    Uiso  ? C
   C395       1.0     0.623427     0.787794     0.403519    Uiso  ? C
   H245       1.0     0.641284     0.792867     0.400826    Uiso  ? H
   C396       1.0     0.615116     0.766986     0.396582    Uiso  ? C
   H246       1.0     0.626090     0.756264     0.386107    Uiso  ? H
   C397       1.0     0.592902     0.760102     0.403419    Uiso  ? C
   H247       1.0     0.584375     0.744488     0.396744    Uiso  ? H
   C398       1.0     0.579975     0.773823     0.418748    Uiso  ? C
   C399       1.0     0.588141     0.795064     0.425092    Uiso  ? C
   H248       1.0     0.579968     0.805035     0.437976    Uiso  ? H
   C400       1.0     0.558696     0.764993     0.430108    Uiso  ? C
   C401       1.0     0.623066     0.881464     0.397856    Uiso  ? C
   C402       1.0     0.616479     0.892662     0.376345    Uiso  ? C
   C403       1.0     0.629836     0.890715     0.356435    Uiso  ? C
   H249       1.0     0.647405     0.884574     0.357322    Uiso  ? H
   C404       1.0     0.624826     0.106907     0.336065    Uiso  ? C
   H250       1.0     0.634730     0.106442     0.320928    Uiso  ? H
   C405       1.0     0.603953     0.119364     0.334848    Uiso  ? C
   H251       1.0     0.597728     0.126145     0.318443    Uiso  ? H
   C406       1.0     0.589694     0.122437     0.354400    Uiso  ? C
   C407       1.0     0.596702     0.109630     0.374654    Uiso  ? C
   H252       1.0     0.584701     0.110496     0.389626    Uiso  ? H
   C408       1.0     0.567943     0.136749     0.354985    Uiso  ? C
   C409       1.0     0.653445     0.107222     0.443530    Uiso  ? C
   C410       1.0     0.661843     0.131240     0.445027    Uiso  ? C
   C411       1.0     0.682054     0.139667     0.432536    Uiso  ? C
   H253       1.0     0.691854     0.129000     0.421375    Uiso  ? H
   C412       1.0     0.689136     0.163257     0.434705    Uiso  ? C
   H254       1.0     0.704738     0.168577     0.427930    Uiso  ? H
   C413       1.0     0.676708     0.177686     0.449491    Uiso  ? C
   H255       1.0     0.682534     0.194593     0.454262    Uiso  ? H
   C414       1.0     0.654775     0.169609     0.459020    Uiso  ? C
   C415       1.0     0.647384     0.147161     0.455507    Uiso  ? C
   H256       1.0     0.630840     0.142361     0.463562    Uiso  ? H
   C416       1.0     0.640178     0.185927     0.471940    Uiso  ? C
   C417       1.0     0.568632     0.792845     0.603658    Uiso  ? C
   C418       1.0     0.551287     0.787966     0.621244    Uiso  ? C
   C419       1.0     0.554916     0.771548     0.637729    Uiso  ? C
   H257       1.0     0.571447     0.761246     0.637577    Uiso  ? H
   C420       1.0     0.540193     0.769716     0.657290    Uiso  ? C
   H258       1.0     0.544416     0.757332     0.670386    Uiso  ? H
   C421       1.0     0.520467     0.783832     0.658763    Uiso  ? C
   H259       1.0     0.507942     0.779067     0.672184    Uiso  ? H
   C422       1.0     0.515426     0.799999     0.641005    Uiso  ? C
   C423       1.0     0.531363     0.801882     0.622716    Uiso  ? C
   H260       1.0     0.528654     0.816705     0.611974    Uiso  ? H
   C424       1.0     0.495849     0.815301     0.641634    Uiso  ? C
   C425       1.0     0.586822     0.771015     0.550342    Uiso  ? C
   C426       1.0     0.579769     0.750994     0.536305    Uiso  ? C
   C427       1.0     0.589178     0.728673     0.541831    Uiso  ? C
   H261       1.0     0.601190     0.727623     0.555098    Uiso  ? H
   C428       1.0     0.581754     0.709947     0.528455    Uiso  ? C
   H262       1.0     0.588914     0.691804     0.531781    Uiso  ? H
   C429       1.0     0.566855     0.713464     0.509785    Uiso  ? C
   H263       1.0     0.561859     0.698494     0.499297    Uiso  ? H
   C430       1.0     0.557576     0.736215     0.504760    Uiso  ? C
   C431       1.0     0.566163     0.754345     0.516617    Uiso  ? C
   H264       1.0     0.562366     0.772718     0.511114    Uiso  ? H
   C432       1.0     0.543272     0.740595     0.483852    Uiso  ? C
   C433       1.0     0.606072     0.836293     0.602227    Uiso  ? C
   C434       1.0     0.612704     0.857105     0.614826    Uiso  ? C
   C435       1.0     0.632737     0.855441     0.629677    Uiso  ? C
   H265       1.0     0.642257     0.839365     0.631268    Uiso  ? H
   C436       1.0     0.639110     0.874059     0.643983    Uiso  ? C
   H266       1.0     0.653510     0.873461     0.656135    Uiso  ? H
   C437       1.0     0.626019     0.894904     0.642704    Uiso  ? C
   H267       1.0     0.629615     0.114563     0.653804    Uiso  ? H
   C438       1.0     0.606774     0.896738     0.627795    Uiso  ? C
   C439       1.0     0.599123     0.877952     0.614455    Uiso  ? C
   H268       1.0     0.584166     0.879095     0.603799    Uiso  ? H
   C440       1.0     0.594101     0.123350     0.627632    Uiso  ? C
   C441       1.0     0.485352     0.738504     0.466287    Uiso  ? C
   C442       1.0     0.461903     0.731066     0.473940    Uiso  ? C
   C443       1.0     0.456626     0.707533     0.475472    Uiso  ? C
   H269       1.0     0.467633     0.694824     0.467636    Uiso  ? H
   C444       1.0     0.435558     0.700978     0.484453    Uiso  ? C
   H270       1.0     0.432113     0.682931     0.484066    Uiso  ? H
   C445       1.0     0.419751     0.717604     0.494355    Uiso  ? C
   H271       1.0     0.402385     0.711245     0.499616    Uiso  ? H
   C446       1.0     0.425149     0.741586     0.493386    Uiso  ? C
   C447       1.0     0.445637     0.748561     0.480541    Uiso  ? C
   H272       1.0     0.449691     0.766665     0.479447    Uiso  ? H
   C448       1.0     0.409222     0.759679     0.502256    Uiso  ? C
   C449       1.0     0.502532     0.759788     0.411492    Uiso  ? C
   C450       1.0     0.491259     0.766442     0.389424    Uiso  ? C
   C451       1.0     0.493728     0.753049     0.368644    Uiso  ? C
   H273       1.0     0.503659     0.737808     0.368283    Uiso  ? H
   C452       1.0     0.484063     0.759719     0.348234    Uiso  ? C
   H274       1.0     0.486254     0.750352     0.332722    Uiso  ? H
   C453       1.0     0.470168     0.779274     0.348310    Uiso  ? C
   H275       1.0     0.461600     0.785316     0.333106    Uiso  ? H
   C454       1.0     0.464599     0.790698     0.368932    Uiso  ? C
   C455       1.0     0.476345     0.785478     0.389707    Uiso  ? C
   H276       1.0     0.473408     0.796439     0.405412    Uiso  ? H
   C456       1.0     0.448212     0.809942     0.369577    Uiso  ? C
   C457       1.0     0.540452     0.138641     0.652396    Uiso  ? C
   C458       1.0     0.524188     0.124756     0.666917    Uiso  ? C
   C459       1.0     0.520938     0.128925     0.690560    Uiso  ? C
   H277       1.0     0.530032     0.143994     0.697285    Uiso  ? H
   C460       1.0     0.504261     0.116777     0.703772    Uiso  ? C
   H278       1.0     0.501141     0.119045     0.722105    Uiso  ? H
   C461       1.0     0.491340     0.892954     0.693609    Uiso  ? C
   H279       1.0     0.478827     0.883083     0.703972    Uiso  ? H
   C462       1.0     0.495859     0.887406     0.669982    Uiso  ? C
   C463       1.0     0.513100     0.105136     0.657433    Uiso  ? C
   H280       1.0     0.512565     0.897030     0.638992    Uiso  ? H
   C464       1.0     0.483236     0.868177     0.659322    Uiso  ? C
   C465       1.0     0.601059     0.178945     0.605477    Uiso  ? C
   C466       1.0     0.618555     0.191874     0.591062    Uiso  ? C
   C467       1.0     0.637850     0.203051     0.601076    Uiso  ? C
   H281       1.0     0.641475     0.203366     0.620316    Uiso  ? H
   C468       1.0     0.652665     0.215455     0.586125    Uiso  ? C
   H282       1.0     0.666827     0.225213     0.593060    Uiso  ? H
   C469       1.0     0.648123     0.217356     0.562399    Uiso  ? C
   H283       1.0     0.659191     0.228133     0.553200    Uiso  ? H
   C470       1.0     0.629724     0.205278     0.552601    Uiso  ? C
   C471       1.0     0.615948     0.191520     0.567272    Uiso  ? C
   H284       1.0     0.601628     0.182102     0.559219    Uiso  ? H
   C472       1.0     0.624512     0.208562     0.527410    Uiso  ? C
   C473       1.0     0.600084     0.221900     0.445920    Uiso  ? C
   C474       1.0     0.591802     0.226946     0.421854    Uiso  ? C
   C475       1.0     0.595217     0.247944     0.410921    Uiso  ? C
   H285       1.0     0.602262     0.262331     0.420286    Uiso  ? H
   C476       1.0     0.589552     0.251167     0.387395    Uiso  ? C
   H286       1.0     0.593728     0.267052     0.379044    Uiso  ? H
   C477       1.0     0.577376     0.234461     0.375510    Uiso  ? C
   H287       1.0     0.573764     0.237100     0.358138    Uiso  ? H
   C478       1.0     0.573107     0.213455     0.385635    Uiso  ? C
   C479       1.0     0.580893     0.209631     0.408512    Uiso  ? C
   H288       1.0     0.578520     0.192412     0.415230    Uiso  ? H
   C480       1.0     0.559248     0.195768     0.373712    Uiso  ? C
   O217       1.0     0.629277     0.854777     0.468501    Uiso  ? O
   O218       1.0     0.663824     0.847156     0.452554    Uiso  ? O
   O219       1.0     0.605225     0.841148     0.433541    Uiso  ? O
   O220       1.0     0.639645     0.830102     0.418486    Uiso  ? O
   O221       1.0     0.609147     0.880731     0.415920    Uiso  ? O
   O222       1.0     0.643199     0.871417     0.398912    Uiso  ? O
   O223       1.0     0.631379     0.897477     0.447995    Uiso  ? O
   O224       1.0     0.666258     0.886310     0.434322    Uiso  ? O
   O225       1.0     0.563160     0.807123     0.586990    Uiso  ? O
   O226       1.0     0.588279     0.782120     0.604522    Uiso  ? O
   O227       1.0     0.576282     0.791376     0.548928    Uiso  ? O
   O228       1.0     0.601787     0.768492     0.566758    Uiso  ? O
   O229       1.0     0.606805     0.823668     0.545280    Uiso  ? O
   O230       1.0     0.633703     0.800771     0.563474    Uiso  ? O
   O231       1.0     0.593640     0.840797     0.583317    Uiso  ? O
   O232       1.0     0.615532     0.816598     0.604262    Uiso  ? O
   O233       1.0     0.490827     0.760594     0.467163    Uiso  ? O
   O234       1.0     0.499733     0.724050     0.456485    Uiso  ? O
   O235       1.0     0.504104     0.775298     0.428096    Uiso  ? O
   O236       1.0     0.511478     0.739537     0.414841    Uiso  ? O
   O237       1.0     0.546942     0.778165     0.444335    Uiso  ? O
   O238       1.0     0.551434     0.744405     0.425480    Uiso  ? O
   O239       1.0     0.532890     0.760687     0.481438    Uiso  ? O
   O240       1.0     0.542782     0.725554     0.466832    Uiso  ? O
   O241       1.0     0.540310     0.136810     0.629964    Uiso  ? O
   O242       1.0     0.557320     0.150238     0.662544    Uiso  ? O
   O243       1.0     0.575926     0.124730     0.613782    Uiso  ? O
   O244       1.0     0.597668     0.139146     0.642984    Uiso  ? O
   O245       1.0     0.584247     0.167378     0.595111    Uiso  ? O
   O246       1.0     0.602627     0.179999     0.627789    Uiso  ? O
   O247       1.0     0.540021     0.176777     0.610740    Uiso  ? O
   O248       1.0     0.562095     0.191309     0.641355    Uiso  ? O
   O249       1.0     0.609477     0.194856     0.518025    Uiso  ? O
   O250       1.0     0.633518     0.225155     0.516110    Uiso  ? O
   O251       1.0     0.618783     0.179802     0.477184    Uiso  ? O
   O252       1.0     0.647151     0.207206     0.475666    Uiso  ? O
   O253       1.0     0.591397     0.204278     0.456323    Uiso  ? O
   O254       1.0     0.614973     0.235274     0.456468    Uiso  ? O
   O255       1.0     0.578768     0.225303     0.496688    Uiso  ? O
   O256       1.0     0.608824     0.251428     0.497640    Uiso  ? O
   O257       1.0     0.441011     0.862751     0.626414    Uiso  ? O
   O258       1.0     0.428345     0.847405     0.660125    Uiso  ? O
   O259       1.0     0.447608     0.822157     0.610819    Uiso  ? O
   O260       1.0     0.439703     0.806198     0.646922    Uiso  ? O
   O261       1.0     0.489241     0.826942     0.623881    Uiso  ? O
   O262       1.0     0.483069     0.813931     0.660161    Uiso  ? O
   O263       1.0     0.482843     0.866042     0.636364    Uiso  ? O
   O264       1.0     0.470190     0.854848     0.672858    Uiso  ? O
   O265       1.0     0.591076     0.879209     0.458868    Uiso  ? O
   O266       1.0     0.562351     0.837389     0.551041    Uiso  ? O
   O267       1.0     0.513861     0.801105     0.467384    Uiso  ? O
   O268       1.0     0.546299     0.139829     0.581749    Uiso  ? O
   O269       1.0     0.571591     0.179903     0.490543    Uiso  ? O
   O270       1.0     0.470865     0.858630     0.592158    Uiso  ? O
   Zn49       1.0     0.616574     0.869369     0.443769    Uiso  ? Zn
   Zn50       1.0     0.656597     0.857141     0.423644    Uiso  ? Zn
   Zn51       1.0     0.583027     0.817843     0.564625    Uiso  ? Zn
   Zn52       1.0     0.613535     0.790734     0.587047    Uiso  ? Zn
   Zn53       1.0     0.518569     0.772271     0.457111    Uiso  ? Zn
   Zn54       1.0     0.526914     0.729422     0.440165    Uiso  ? Zn
   Zn55       1.0     0.559455     0.150877     0.608402    Uiso  ? Zn
   Zn56       1.0     0.580379     0.166742     0.647300    Uiso  ? Zn
   Zn57       1.0     0.596217     0.199601     0.487184    Uiso  ? Zn
   Zn58       1.0     0.628700     0.231139     0.484865    Uiso  ? Zn
   Zn59       1.0     0.466419     0.846385     0.620383    Uiso  ? Zn
   Zn60       1.0     0.453995     0.829558     0.662772    Uiso  ? Zn
   C481       1.0     0.341119     0.161646     0.532730    Uiso  ? C
   C482       1.0     0.332538     0.172351     0.511361    Uiso  ? C
   C483       1.0     0.312163     0.185188     0.512051    Uiso  ? C
   H289       1.0     0.301728     0.187409     0.527556    Uiso  ? H
   C484       1.0     0.306670     0.197979     0.492187    Uiso  ? C
   H290       1.0     0.291929     0.208944     0.492603    Uiso  ? H
   C485       1.0     0.320570     0.197575     0.472459    Uiso  ? C
   H291       1.0     0.316209     0.208685     0.458476    Uiso  ? H
   C486       1.0     0.341154     0.184080     0.471873    Uiso  ? C
   C487       1.0     0.345929     0.170230     0.490687    Uiso  ? C
   H292       1.0     0.359199     0.157836     0.489885    Uiso  ? H
   C488       1.0     0.359159     0.186121     0.453049    Uiso  ? C
   C489       1.0     0.377750     0.176969     0.577205    Uiso  ? C
   C490       1.0     0.387662     0.199404     0.584080    Uiso  ? C
   C491       1.0     0.377917     0.212216     0.601992    Uiso  ? C
   H293       1.0     0.363170     0.206773     0.611496    Uiso  ? H
   C492       1.0     0.387536     0.233785     0.607934    Uiso  ? C
   H294       1.0     0.383080     0.242936     0.623660    Uiso  ? H
   C493       1.0     0.408717     0.240197     0.597992    Uiso  ? C
   H295       1.0     0.416722     0.255752     0.603320    Uiso  ? H
   C494       1.0     0.419447     0.228085     0.579538    Uiso  ? C
   C495       1.0     0.408548     0.206749     0.574582    Uiso  ? C
   H296       1.0     0.413999     0.198124     0.558590    Uiso  ? H
   C496       1.0     0.439794     0.237141     0.567084    Uiso  ? C
   C497       1.0     0.371959     0.119998     0.600747    Uiso  ? C
   C498       1.0     0.379201     0.108196     0.621679    Uiso  ? C
   C499       1.0     0.367424     0.110851     0.642413    Uiso  ? C
   H297       1.0     0.353665     0.122789     0.644383    Uiso  ? H
   C500       1.0     0.372708     0.894534     0.662843    Uiso  ? C
   H298       1.0     0.363903     0.897047     0.678520    Uiso  ? H
   C501       1.0     0.392886     0.880330     0.662725    Uiso  ? C
   H299       1.0     0.398969     0.875933     0.679623    Uiso  ? H
   C502       1.0     0.405455     0.877205     0.642570    Uiso  ? C
   C503       1.0     0.398144     0.888857     0.622505    Uiso  ? C
   H300       1.0     0.409100     0.887575     0.607632    Uiso  ? H
   C504       1.0     0.425413     0.861136     0.642797    Uiso  ? C
   C505       1.0     0.340930     0.103901     0.552256    Uiso  ? C
   C506       1.0     0.329397     0.876018     0.546954    Uiso  ? C
   C507       1.0     0.306623     0.871405     0.552904    Uiso  ? C
   H301       1.0     0.296592     0.885274     0.559032    Uiso  ? H
   C508       1.0     0.296986     0.849451     0.549866    Uiso  ? C
   H302       1.0     0.278683     0.847500     0.553248    Uiso  ? H
   C509       1.0     0.310539     0.831629     0.539487    Uiso  ? C
   H303       1.0     0.302899     0.814300     0.536198    Uiso  ? H
   C510       1.0     0.333533     0.835401     0.535292    Uiso  ? C
   C511       1.0     0.342997     0.858076     0.538495    Uiso  ? C
   H304       1.0     0.360145     0.862653     0.530567    Uiso  ? H
   C512       1.0     0.350070     0.816541     0.528138    Uiso  ? C
   C513       1.0     0.419397     0.203120     0.392932    Uiso  ? C
   C514       1.0     0.437308     0.206844     0.374176    Uiso  ? C
   C515       1.0     0.431478     0.222150     0.355758    Uiso  ? C
   H305       1.0     0.415454     0.233163     0.355529    Uiso  ? H
   C516       1.0     0.448706     0.225400     0.339138    Uiso  ? C
   H306       1.0     0.444062     0.236906     0.324577    Uiso  ? H
   C517       1.0     0.469405     0.214500     0.339071    Uiso  ? C
   H307       1.0     0.480641     0.216537     0.323537    Uiso  ? H
   C518       1.0     0.476846     0.201653     0.358174    Uiso  ? C
   C519       1.0     0.460447     0.198781     0.375731    Uiso  ? C
   H308       1.0     0.465588     0.186632     0.390283    Uiso  ? H
   C520       1.0     0.499292     0.189299     0.357449    Uiso  ? C
   C521       1.0     0.404755     0.228245     0.445297    Uiso  ? C
   C522       1.0     0.409543     0.248444     0.460174    Uiso  ? C
   C523       1.0     0.396353     0.268786     0.458834    Uiso  ? C
   H309       1.0     0.383804     0.271784     0.445665    Uiso  ? H
   C524       1.0     0.401750     0.287615     0.473029    Uiso  ? C
   H310       1.0     0.394385     0.304198     0.470758    Uiso  ? H
   C525       1.0     0.418427     0.285791     0.489314    Uiso  ? C
   H311       1.0     0.423442     0.300545     0.499687    Uiso  ? H
   C526       1.0     0.430341     0.265316     0.492779    Uiso  ? C
   C527       1.0     0.425935     0.246789     0.477802    Uiso  ? C
   H312       1.0     0.434583     0.230442     0.477964    Uiso  ? H
   C528       1.0     0.445258     0.262037     0.513668    Uiso  ? C
   C529       1.0     0.376376     0.161661     0.399740    Uiso  ? C
   C530       1.0     0.372975     0.141985     0.383464    Uiso  ? C
   C531       1.0     0.354208     0.142400     0.366500    Uiso  ? C
   H313       1.0     0.341435     0.155224     0.366844    Uiso  ? H
   C532       1.0     0.350978     0.123535     0.352949    Uiso  ? C
   H314       1.0     0.336250     0.122149     0.340909    Uiso  ? H
   C533       1.0     0.363605     0.102906     0.356461    Uiso  ? C
   H315       1.0     0.357337     0.882974     0.346517    Uiso  ? H
   C534       1.0     0.381536     0.897627     0.372136    Uiso  ? C
   C535       1.0     0.387060     0.122450     0.385714    Uiso  ? C
   H316       1.0     0.401611     0.122867     0.397248    Uiso  ? H
   C536       1.0     0.397749     0.877711     0.372932    Uiso  ? C
   C537       1.0     0.507580     0.269323     0.526736    Uiso  ? C
   C538       1.0     0.531035     0.276317     0.519377    Uiso  ? C
   C539       1.0     0.538259     0.299230     0.519810    Uiso  ? C
   H317       1.0     0.525559     0.312661     0.523026    Uiso  ? H
   C540       1.0     0.560492     0.305184     0.511509    Uiso  ? C
   H318       1.0     0.563917     0.324245     0.510181    Uiso  ? H
   C541       1.0     0.576187     0.288198     0.506030    Uiso  ? C
   H319       1.0     0.593461     0.293605     0.504137    Uiso  ? H
   C542       1.0     0.569434     0.265200     0.505730    Uiso  ? C
   C543       1.0     0.546219     0.259502     0.511811    Uiso  ? C
   H320       1.0     0.539653     0.242487     0.510671    Uiso  ? H
   C544       1.0     0.586172     0.246411     0.499859    Uiso  ? C
   C545       1.0     0.493321     0.247585     0.583336    Uiso  ? C
   C546       1.0     0.508305     0.243058     0.603423    Uiso  ? C
   C547       1.0     0.511935     0.260381     0.620457    Uiso  ? C
   H321       1.0     0.502184     0.275697     0.617354    Uiso  ? H
   C548       1.0     0.523542     0.255547     0.640823    Uiso  ? C
   H322       1.0     0.527030     0.269646     0.652741    Uiso  ? H
   C549       1.0     0.534819     0.234166     0.643003    Uiso  ? C
   H323       1.0     0.543600     0.228770     0.659657    Uiso  ? H
   C550       1.0     0.532107     0.216697     0.625964    Uiso  ? C
   C551       1.0     0.517987     0.221924     0.606481    Uiso  ? C
   H324       1.0     0.516400     0.208452     0.594400    Uiso  ? H
   C552       1.0     0.544925     0.193982     0.625820    Uiso  ? C
   C553       1.0     0.447451     0.864974     0.345951    Uiso  ? C
   C554       1.0     0.463579     0.878743     0.331853    Uiso  ? C
   C555       1.0     0.466214     0.875386     0.307949    Uiso  ? C
   H325       1.0     0.458345     0.860033     0.299869    Uiso  ? H
   C556       1.0     0.481935     0.887457     0.294696    Uiso  ? C
   H326       1.0     0.481538     0.885155     0.276071    Uiso  ? H
   C557       1.0     0.497072     0.109110     0.306244    Uiso  ? C
   H327       1.0     0.509043     0.118803     0.295445    Uiso  ? H
   C558       1.0     0.495764     0.112938     0.329834    Uiso  ? C
   C559       1.0     0.478394     0.894747     0.342024    Uiso  ? C
   H328       1.0     0.476696     0.103708     0.360183    Uiso  ? H
   C560       1.0     0.510615     0.131979     0.339939    Uiso  ? C
   C561       1.0     0.394422     0.822265     0.395845    Uiso  ? C
   C562       1.0     0.377341     0.809715     0.410503    Uiso  ? C
   C563       1.0     0.360215     0.796979     0.398708    Uiso  ? C
   H329       1.0     0.358994     0.795896     0.380427    Uiso  ? H
   C564       1.0     0.344422     0.784123     0.412042    Uiso  ? C
   H330       1.0     0.330546     0.774297     0.403652    Uiso  ? H
   C565       1.0     0.345396     0.783450     0.436250    Uiso  ? C
   H331       1.0     0.332812     0.773647     0.445898    Uiso  ? H
   C566       1.0     0.363344     0.795380     0.447681    Uiso  ? C
   C567       1.0     0.379981     0.807982     0.434624    Uiso  ? C
   H332       1.0     0.394094     0.817508     0.442152    Uiso  ? H
   C568       1.0     0.367632     0.793097     0.473505    Uiso  ? C
   C569       1.0     0.390829     0.782113     0.555683    Uiso  ? C
   C570       1.0     0.396860     0.779875     0.580068    Uiso  ? C
   C571       1.0     0.382145     0.766018     0.594802    Uiso  ? C
   H333       1.0     0.368097     0.755577     0.589052    Uiso  ? H
   C572       1.0     0.387408     0.763043     0.618850    Uiso  ? C
   H334       1.0     0.379462     0.750223     0.630141    Uiso  ? H
   C573       1.0     0.407200     0.774601     0.626885    Uiso  ? C
   H335       1.0     0.412187     0.772132     0.645179    Uiso  ? H
   C574       1.0     0.420023     0.790315     0.613387    Uiso  ? C
   C575       1.0     0.414658     0.792719     0.590063    Uiso  ? C
   H336       1.0     0.426505     0.804203     0.579402    Uiso  ? H
   C576       1.0     0.436805     0.806626     0.623915    Uiso  ? C
   O271       1.0     0.361403     0.150569     0.531686    Uiso  ? O
   O272       1.0     0.329406     0.163633     0.551891    Uiso  ? O
   O273       1.0     0.389624     0.163636     0.562894    Uiso  ? O
   O274       1.0     0.357649     0.170976     0.585430    Uiso  ? O
   O275       1.0     0.383809     0.119812     0.582061    Uiso  ? O
   O276       1.0     0.352837     0.131865     0.601361    Uiso  ? O
   O277       1.0     0.360687     0.108857     0.543784    Uiso  ? O
   O278       1.0     0.329728     0.118193     0.566101    Uiso  ? O
   O279       1.0     0.424508     0.191007     0.411449    Uiso  ? O
   O280       1.0     0.398718     0.209562     0.389183    Uiso  ? O
   O281       1.0     0.414693     0.208735     0.448899    Uiso  ? O
   O282       1.0     0.387857     0.229341     0.430766    Uiso  ? O
   O283       1.0     0.380199     0.179320     0.455379    Uiso  ? O
   O284       1.0     0.353637     0.198573     0.435037    Uiso  ? O
   O285       1.0     0.393165     0.159819     0.414914    Uiso  ? O
   O286       1.0     0.365520     0.181070     0.395923    Uiso  ? O
   O287       1.0     0.501764     0.247471     0.526195    Uiso  ? O
   O288       1.0     0.493799     0.283668     0.538024    Uiso  ? O
   O289       1.0     0.491611     0.232095     0.566418    Uiso  ? O
   O290       1.0     0.483704     0.267209     0.580260    Uiso  ? O
   O291       1.0     0.451622     0.222887     0.553876    Uiso  ? O
   O292       1.0     0.443525     0.259507     0.567780    Uiso  ? O
   O293       1.0     0.457884     0.243298     0.514942    Uiso  ? O
   O294       1.0     0.447292     0.277368     0.529180    Uiso  ? O
   O295       1.0     0.449073     0.865938     0.367917    Uiso  ? O
   O296       1.0     0.433366     0.851219     0.335846    Uiso  ? O
   O297       1.0     0.410525     0.874403     0.390756    Uiso  ? O
   O298       1.0     0.398056     0.863573     0.355670    Uiso  ? O
   O299       1.0     0.410712     0.835035     0.405751    Uiso  ? O
   O300       1.0     0.394496     0.819639     0.372858    Uiso  ? O
   O301       1.0     0.447872     0.825463     0.387248    Uiso  ? O
   O302       1.0     0.433297     0.811691     0.351996    Uiso  ? O
   O303       1.0     0.383697     0.806362     0.482706    Uiso  ? O
   O304       1.0     0.358447     0.777609     0.485833    Uiso  ? O
   O305       1.0     0.372160     0.821584     0.524491    Uiso  ? O
   O306       1.0     0.343042     0.795281     0.524650    Uiso  ? O
   O307       1.0     0.404165     0.793939     0.541327    Uiso  ? O
   O308       1.0     0.371767     0.772604     0.547507    Uiso  ? O
   O309       1.0     0.414170     0.782011     0.500048    Uiso  ? O
   O310       1.0     0.388489     0.754247     0.508229    Uiso  ? O
   O311       1.0     0.554996     0.138218     0.373945    Uiso  ? O
   O312       1.0     0.563560     0.151337     0.337922    Uiso  ? O
   O313       1.0     0.547408     0.181328     0.385348    Uiso  ? O
   O314       1.0     0.556325     0.195014     0.350816    Uiso  ? O
   O315       1.0     0.504312     0.175793     0.374085    Uiso  ? O
   O316       1.0     0.511797     0.188550     0.339349    Uiso  ? O
   O317       1.0     0.513048     0.132569     0.362340    Uiso  ? O
   O318       1.0     0.521589     0.146530     0.326936    Uiso  ? O
   O319       1.0     0.402950     0.126953     0.536944    Uiso  ? O
   O320       1.0     0.425499     0.162226     0.447763    Uiso  ? O
   O321       1.0     0.485481     0.205113     0.526008    Uiso  ? O
   O322       1.0     0.452166     0.861566     0.412995    Uiso  ? O
   O323       1.0     0.415678     0.829111     0.511428    Uiso  ? O
   O324       1.0     0.523406     0.146527     0.407428    Uiso  ? O
   Zn61       1.0     0.377187     0.135274     0.552863    Uiso  ? Zn
   Zn62       1.0     0.339464     0.147043     0.578154    Uiso  ? Zn
   Zn63       1.0     0.403567     0.182471     0.435019    Uiso  ? Zn
   Zn64       1.0     0.374110     0.207441     0.411247    Uiso  ? Zn
   Zn65       1.0     0.476501     0.233265     0.537988    Uiso  ? Zn
   Zn66       1.0     0.466433     0.275081     0.553500    Uiso  ? Zn
   Zn67       1.0     0.433375     0.851804     0.391424    Uiso  ? Zn
   Zn68       1.0     0.412398     0.834875     0.352386    Uiso  ? Zn
   Zn69       1.0     0.394855     0.804800     0.511972    Uiso  ? Zn
   Zn70       1.0     0.363353     0.772751     0.517145    Uiso  ? Zn
   Zn71       1.0     0.528823     0.156416     0.377224    Uiso  ? Zn
   Zn72       1.0     0.539470     0.171796     0.336752    Uiso  ? Zn
   H337       1.0     0.417014     0.147357     0.450038    Uiso  ? H
   H338       1.0     0.429492     0.168078     0.463772    Uiso  ? H
   H339       1.0     0.548985     0.827537     0.549337    Uiso  ? H
   H340       1.0     0.557788     0.851665     0.559904    Uiso  ? H
   H341       1.0     0.456114     0.857191     0.583909    Uiso  ? H
   H342       1.0     0.482180     0.849177     0.583062    Uiso  ? H
   H343       1.0     0.555574     0.126285     0.576320    Uiso  ? H
   H344       1.0     0.541751     0.150701     0.569894    Uiso  ? H
   H345       1.0     0.519780     0.129226     0.407990    Uiso  ? H
   H346       1.0     0.509998     0.153086     0.414765    Uiso  ? H
   H347       1.0     0.584065     0.889972     0.448043    Uiso  ? H
   H348       1.0     0.599149     0.889413     0.469855    Uiso  ? H
   H349       1.0     0.557039     0.186503     0.483995    Uiso  ? H
   H350       1.0     0.568197     0.177377     0.506429    Uiso  ? H
   H351       1.0     0.461037     0.875136     0.406877    Uiso  ? H
   H352       1.0     0.442005     0.868448     0.425323    Uiso  ? H
   H353       1.0     0.529316     0.806348     0.472742    Uiso  ? H
   H354       1.0     0.502945     0.799518     0.479997    Uiso  ? H
   H355       1.0     0.431213     0.822888     0.514357    Uiso  ? H
   H356       1.0     0.413533     0.839481     0.524899    Uiso  ? H
   H357       1.0     0.482176     0.196400     0.540217    Uiso  ? H
   H358       1.0     0.473912     0.199763     0.514966    Uiso  ? H
   H359       1.0     0.412986     0.139768     0.532994    Uiso  ? H
   H360       1.0     0.398974     0.120897     0.521104    Uiso  ? H
   C577       1.0     0.519012     0.345304     0.156444    Uiso  ? C
   C578       1.0     0.539463     0.347437     0.171759    Uiso  ? C
   C579       1.0     0.549634     0.327937     0.181865    Uiso  ? C
   H361       1.0     0.543116     0.310469     0.178360    Uiso  ? H
   C580       1.0     0.569859     0.329326     0.196211    Uiso  ? C
   H362       1.0     0.577013     0.314908     0.203714    Uiso  ? H
   C581       1.0     0.578385     0.351884     0.201930    Uiso  ? C
   H363       1.0     0.591495     0.353840     0.215077    Uiso  ? H
   C582       1.0     0.570069     0.371282     0.190737    Uiso  ? C
   C583       1.0     0.551103     0.369125     0.174892    Uiso  ? C
   H364       1.0     0.542455     0.383715     0.166837    Uiso  ? H
   C584       1.0     0.577129     0.395255     0.197355    Uiso  ? C
   C585       1.0     0.462680     0.355742     0.164520    Uiso  ? C
   C586       1.0     0.449649     0.361704     0.185423    Uiso  ? C
   C587       1.0     0.442621     0.343999     0.198766    Uiso  ? C
   H365       1.0     0.447555     0.326843     0.195022    Uiso  ? H
   C588       1.0     0.429131     0.348562     0.219869    Uiso  ? C
   H366       1.0     0.426484     0.335564     0.231944    Uiso  ? H
   C589       1.0     0.424377     0.371340     0.225478    Uiso  ? C
   H367       1.0     0.413405     0.374624     0.240155    Uiso  ? H
   C590       1.0     0.431735     0.389565     0.210339    Uiso  ? C
   C591       1.0     0.444474     0.384616     0.190837    Uiso  ? C
   H368       1.0     0.455237     0.396238     0.180791    Uiso  ? H
   C592       1.0     0.429178     0.414332     0.217473    Uiso  ? C
   C593       1.0     0.450624     0.344346     0.103977    Uiso  ? C
   C594       1.0     0.431735     0.342339     0.888191    Uiso  ? C
   C595       1.0     0.415091     0.325260     0.892811    Uiso  ? C
   H369       1.0     0.416896     0.314242     0.105216    Uiso  ? H
   C596       1.0     0.395709     0.324440     0.879130    Uiso  ? C
   H370       1.0     0.386385     0.309241     0.878778    Uiso  ? H
   C597       1.0     0.392052     0.339914     0.860564    Uiso  ? C
   H371       1.0     0.378682     0.337015     0.848518    Uiso  ? H
   C598       1.0     0.408719     0.358051     0.857245    Uiso  ? C
   C599       1.0     0.428369     0.358174     0.871099    Uiso  ? C
   H372       1.0     0.439786     0.372847     0.868662    Uiso  ? H
   C600       1.0     0.405897     0.376013     0.839566    Uiso  ? C
   C601       1.0     0.509062     0.337600     0.895620    Uiso  ? C
   C602       1.0     0.523470     0.332147     0.875487    Uiso  ? C
   C603       1.0     0.537168     0.312368     0.875454    Uiso  ? C
   H373       1.0     0.536026     0.299482     0.889373    Uiso  ? H
   C604       1.0     0.552287     0.307199     0.857381    Uiso  ? C
   H374       1.0     0.557712     0.289361     0.854667    Uiso  ? H
   C605       1.0     0.554718     0.322232     0.838912    Uiso  ? C
   H375       1.0     0.564320     0.317029     0.824181    Uiso  ? H
   C606       1.0     0.543408     0.343699     0.838824    Uiso  ? C
   C607       1.0     0.528881     0.348631     0.858660    Uiso  ? C
   H376       1.0     0.519285     0.364517     0.857499    Uiso  ? H
   C608       1.0     0.549567     0.360241     0.820004    Uiso  ? C
   C609       1.0     0.601789     0.474214     0.222380    Uiso  ? C
   C610       1.0     0.612524     0.497222     0.225348    Uiso  ? C
   C611       1.0     0.626286     0.501191     0.245195    Uiso  ? C
   H377       1.0     0.627965     0.489011     0.258793    Uiso  ? H
   C612       1.0     0.632185     0.523778     0.251097    Uiso  ? C
   H378       1.0     0.638992     0.526998     0.269762    Uiso  ? H
   C613       1.0     0.628654     0.542001     0.235784    Uiso  ? C
   H379       1.0     0.630402     0.559203     0.242111    Uiso  ? H
   C614       1.0     0.618574     0.537922     0.214563    Uiso  ? C
   C615       1.0     0.610274     0.515283     0.209051    Uiso  ? C
   H380       1.0     0.599942     0.511062     0.193515    Uiso  ? H
   C616       1.0     0.612022     0.557125     0.199006    Uiso  ? C
   C617       1.0     0.551479     0.439783     0.232431    Uiso  ? C
   C618       1.0     0.532309     0.443538     0.249285    Uiso  ? C
   C619       1.0     0.535009     0.438065     0.273268    Uiso  ? C
   H381       1.0     0.550970     0.430530     0.280057    Uiso  ? H
   C620       1.0     0.515668     0.437921     0.287967    Uiso  ? C
   H382       1.0     0.516222     0.431212     0.304408    Uiso  ? H
   C621       1.0     0.493794     0.444470     0.280368    Uiso  ? C
   H383       1.0     0.479352     0.442686     0.292487    Uiso  ? H
   C622       1.0     0.490434     0.449791     0.256868    Uiso  ? C
   C623       1.0     0.510641     0.450854     0.242020    Uiso  ? C
   H384       1.0     0.507033     0.455290     0.224389    Uiso  ? H
   C624       1.0     0.466651     0.451994     0.246743    Uiso  ? C
   C625       1.0     0.624038     0.432015     0.186037    Uiso  ? C
   C626       1.0     0.646005     0.432197     0.170571    Uiso  ? C
   C627       1.0     0.666087     0.419752     0.176612    Uiso  ? C
   H385       1.0     0.666458     0.406791     0.191158    Uiso  ? H
   C628       1.0     0.685129     0.420406     0.161713    Uiso  ? C
   H386       1.0     0.701406     0.411897     0.166218    Uiso  ? H
   C629       1.0     0.684410     0.433744     0.141651    Uiso  ? C
   H387       1.0     0.699439     0.434006     0.130952    Uiso  ? H
   C630       1.0     0.663578     0.444985     0.134801    Uiso  ? C
   C631       1.0     0.644069     0.444079     0.149677    Uiso  ? C
   H388       1.0     0.628317     0.453347     0.144851    Uiso  ? H
   C632       1.0     0.660944     0.457050     0.112259    Uiso  ? C
   C633       1.0     0.426084     0.498615     0.241640    Uiso  ? C
   C634       1.0     0.423861     0.523357     0.247739    Uiso  ? C
   C635       1.0     0.408808     0.529280     0.266081    Uiso  ? C
   H389       1.0     0.401873     0.516542     0.278112    Uiso  ? H
   C636       1.0     0.405847     0.553813     0.271774    Uiso  ? C
   H390       1.0     0.391817     0.558788     0.283155    Uiso  ? H
   C637       1.0     0.416777     0.571135     0.259118    Uiso  ? C
   H391       1.0     0.411274     0.587003     0.263235    Uiso  ? H
   C638       1.0     0.429247     0.564202     0.239589    Uiso  ? C
   C639       1.0     0.433899     0.541088     0.235440    Uiso  ? C
   H392       1.0     0.445544     0.537823     0.220580    Uiso  ? H
   C640       1.0     0.435397     0.582718     0.223499    Uiso  ? C
   C641       1.0     0.391308     0.461316     0.209250    Uiso  ? C
   C642       1.0     0.368245     0.465603     0.199514    Uiso  ? C
   C643       1.0     0.348153     0.460861     0.212751    Uiso  ? C
   H393       1.0     0.349463     0.453815     0.230147    Uiso  ? H
   C644       1.0     0.325875     0.467805     0.204330    Uiso  ? C
   H394       1.0     0.310762     0.464176     0.214570    Uiso  ? H
   C645       1.0     0.324724     0.478709     0.182594    Uiso  ? C
   H395       1.0     0.308632     0.480942     0.174501    Uiso  ? H
   C646       1.0     0.344659     0.485312     0.170116    Uiso  ? C
   C647       1.0     0.366487     0.478224     0.178743    Uiso  ? C
   H396       1.0     0.382176     0.483853     0.169361    Uiso  ? H
   C648       1.0     0.344391     0.498047     0.147473    Uiso  ? C
   C649       1.0     0.667443     0.511983     0.896892    Uiso  ? C
   C650       1.0     0.671561     0.533970     0.112250    Uiso  ? C
   C651       1.0     0.693829     0.542022     0.115991    Uiso  ? C
   H397       1.0     0.708657     0.533466     0.109344    Uiso  ? H
   C652       1.0     0.697578     0.561939     0.129589    Uiso  ? C
   H398       1.0     0.715287     0.567708     0.132096    Uiso  ? H
   C653       1.0     0.678739     0.574309     0.138680    Uiso  ? C
   H399       1.0     0.682857     0.589845     0.149881    Uiso  ? H
   C654       1.0     0.656190     0.564323     0.135459    Uiso  ? C
   C655       1.0     0.653008     0.544678     0.123117    Uiso  ? C
   H400       1.0     0.635653     0.536237     0.124244    Uiso  ? H
   C656       1.0     0.636426     0.574832     0.148212    Uiso  ? C
   C657       1.0     0.650989     0.439687     0.853896    Uiso  ? C
   C658       1.0     0.647187     0.418558     0.839512    Uiso  ? C
   C659       1.0     0.663754     0.401810     0.837063    Uiso  ? C
   H401       1.0     0.680035     0.405615     0.844344    Uiso  ? H
   C660       1.0     0.657968     0.380668     0.825747    Uiso  ? C
   H402       1.0     0.669517     0.365287     0.824993    Uiso  ? H
   C661       1.0     0.636302     0.377843     0.816247    Uiso  ? C
   H403       1.0     0.634229     0.363967     0.805099    Uiso  ? H
   C662       1.0     0.619701     0.395299     0.818237    Uiso  ? C
   C663       1.0     0.625415     0.415521     0.829308    Uiso  ? C
   H404       1.0     0.613168     0.428732     0.831124    Uiso  ? H
   C664       1.0     0.597785     0.393909     0.805620    Uiso  ? C
   C665       1.0     0.517023     0.379689     0.777587    Uiso  ? C
   C666       1.0     0.492879     0.376393     0.768928    Uiso  ? C
   C667       1.0     0.487400     0.358740     0.752620    Uiso  ? C
   H405       1.0     0.500684     0.350764     0.741731    Uiso  ? H
   C668       1.0     0.464835     0.352110     0.747950    Uiso  ? C
   H406       1.0     0.462342     0.340134     0.733945    Uiso  ? H
   C669       1.0     0.447113     0.363489     0.759652    Uiso  ? C
   H407       1.0     0.429861     0.356313     0.757309    Uiso  ? H
   C670       1.0     0.451627     0.380668     0.775751    Uiso  ? C
   C671       1.0     0.474601     0.388098     0.779758    Uiso  ? C
   H408       1.0     0.478368     0.403539     0.791064    Uiso  ? H
   C672       1.0     0.432143     0.391374     0.788312    Uiso  ? C
   O325       1.0     0.512160     0.362729     0.145547    Uiso  ? O
   O326       1.0     0.508363     0.325503     0.153031    Uiso  ? O
   O327       1.0     0.468740     0.372015     0.150157    Uiso  ? O
   O328       1.0     0.469595     0.334712     0.159368    Uiso  ? O
   O329       1.0     0.462399     0.363389     0.104802    Uiso  ? O
   O330       1.0     0.457305     0.326100     0.115720    Uiso  ? O
   O331       1.0     0.504386     0.359930     0.101154    Uiso  ? O
   O332       1.0     0.502192     0.321358     0.108640    Uiso  ? O
   O333       1.0     0.588042     0.471270     0.204756    Uiso  ? O
   O334       1.0     0.608260     0.456232     0.234695    Uiso  ? O
   O335       1.0     0.550488     0.447761     0.211176    Uiso  ? O
   O336       1.0     0.570596     0.430023     0.239858    Uiso  ? O
   O337       1.0     0.569110     0.412951     0.186476    Uiso  ? O
   O338       1.0     0.590525     0.397279     0.215756    Uiso  ? O
   O339       1.0     0.603923     0.439656     0.177212    Uiso  ? O
   O340       1.0     0.625163     0.426687     0.208644    Uiso  ? O
   O341       1.0     0.436498     0.493011     0.222330    Uiso  ? O
   O342       1.0     0.418455     0.482126     0.254771    Uiso  ? O
   O343       1.0     0.410015     0.465749     0.197351    Uiso  ? O
   O344       1.0     0.393239     0.455585     0.230707    Uiso  ? O
   O345       1.0     0.438088     0.431740     0.204896    Uiso  ? O
   O346       1.0     0.419433     0.419714     0.237892    Uiso  ? O
   O347       1.0     0.465434     0.458343     0.224746    Uiso  ? O
   O348       1.0     0.448338     0.448201     0.260000    Uiso  ? O
   O349       1.0     0.645643     0.506013     0.892097    Uiso  ? O
   O350       1.0     0.684491     0.499324     0.888643    Uiso  ? O
   O351       1.0     0.640658     0.463301     0.104947    Uiso  ? O
   O352       1.0     0.679202     0.459492     0.899615    Uiso  ? O
   O353       1.0     0.633489     0.451582     0.861830    Uiso  ? O
   O354       1.0     0.672715     0.446248     0.857054    Uiso  ? O
   O355       1.0     0.633436     0.494735     0.851229    Uiso  ? O
   O356       1.0     0.672517     0.492457     0.847435    Uiso  ? O
   O357       1.0     0.581205     0.408251     0.811976    Uiso  ? O
   O358       1.0     0.592805     0.377605     0.790959    Uiso  ? O
   O359       1.0     0.547710     0.382412     0.823753    Uiso  ? O
   O360       1.0     0.557833     0.352325     0.799907    Uiso  ? O
   O361       1.0     0.521967     0.398062     0.790069    Uiso  ? O
   O362       1.0     0.534051     0.366726     0.770515    Uiso  ? O
   O363       1.0     0.555847     0.425674     0.780118    Uiso  ? O
   O364       1.0     0.569402     0.397432     0.754606    Uiso  ? O
   O365       1.0     0.582698     0.598246     0.141211    Uiso  ? O
   O366       1.0     0.607661     0.622037     0.160089    Uiso  ? O
   O367       1.0     0.567181     0.585079     0.181724    Uiso  ? O
   O368       1.0     0.591858     0.608788     0.200356    Uiso  ? O
   O369       1.0     0.598310     0.552776     0.181845    Uiso  ? O
   O370       1.0     0.621485     0.577089     0.200473    Uiso  ? O
   O371       1.0     0.614935     0.567165     0.144406    Uiso  ? O
   O372       1.0     0.640409     0.588534     0.165225    Uiso  ? O
   O373       1.0     0.490708     0.399589     0.120694    Uiso  ? O
   O374       1.0     0.564779     0.456072     0.166706    Uiso  ? O
   O375       1.0     0.452053     0.471565     0.182836    Uiso  ? O
   O376       1.0     0.604156     0.480126     0.886431    Uiso  ? O
   O377       1.0     0.539018     0.426907     0.823752    Uiso  ? O
   O378       1.0     0.569253     0.552907     0.145549    Uiso  ? O
   Zn73       1.0     0.487835     0.369549     0.125173    Uiso  ? Zn
   Zn74       1.0     0.484437     0.322825     0.133991    Uiso  ? Zn
   Zn75       1.0     0.577184     0.443538     0.192697    Uiso  ? Zn
   Zn76       1.0     0.599475     0.425861     0.229355    Uiso  ? Zn
   Zn77       1.0     0.438505     0.463910     0.209319    Uiso  ? Zn
   Zn78       1.0     0.417892     0.450703     0.249021    Uiso  ? Zn
   Zn79       1.0     0.634468     0.478052     0.878245    Uiso  ? Zn
   Zn80       1.0     0.679647     0.473194     0.871031    Uiso  ? Zn
   Zn81       1.0     0.551172     0.405683     0.803641    Uiso  ? Zn
   Zn82       1.0     0.565690     0.373187     0.775147    Uiso  ? Zn
   Zn83       1.0     0.589086     0.573467     0.160404    Uiso  ? Zn
   Zn84       1.0     0.617908     0.602617     0.183971    Uiso  ? Zn
   C673       1.0     0.475191     0.649427     0.828216    Uiso  ? C
   C674       1.0     0.457294     0.647258     0.809981    Uiso  ? C
   C675       1.0     0.448202     0.668266     0.800963    Uiso  ? C
   H409       1.0     0.453070     0.684677     0.808302    Uiso  ? H
   C676       1.0     0.431045     0.665995     0.784726    Uiso  ? C
   H410       1.0     0.422341     0.681529     0.778281    Uiso  ? H
   C677       1.0     0.424928     0.643944     0.775523    Uiso  ? C
   H411       1.0     0.412624     0.643948     0.760921    Uiso  ? H
   C678       1.0     0.431753     0.623744     0.787849    Uiso  ? C
   C679       1.0     0.448892     0.626082     0.804820    Uiso  ? C
   H412       1.0     0.454640     0.610465     0.814119    Uiso  ? H
   C680       1.0     0.421939     0.600748     0.782788    Uiso  ? C
   C681       1.0     0.536523     0.641204     0.823866    Uiso  ? C
   C682       1.0     0.550304     0.635642     0.803872    Uiso  ? C
   C683       1.0     0.560665     0.654464     0.791095    Uiso  ? C
   H413       1.0     0.558404     0.671372     0.796536    Uiso  ? H
   C684       1.0     0.575495     0.648707     0.772529    Uiso  ? C
   H414       1.0     0.582789     0.662721     0.761934    Uiso  ? H
   C685       1.0     0.580066     0.625395     0.766256    Uiso  ? C
   H415       1.0     0.591010     0.620303     0.751545    Uiso  ? H
   C686       1.0     0.567262     0.608172     0.776691    Uiso  ? C
   C687       1.0     0.554435     0.613207     0.797020    Uiso  ? C
   H416       1.0     0.545922     0.598361     0.805527    Uiso  ? H
   C688       1.0     0.569657     0.583219     0.768859    Uiso  ? C
   C689       1.0     0.543858     0.653451     0.881118    Uiso  ? C
   C690       1.0     0.563962     0.654188     0.896355    Uiso  ? C
   C691       1.0     0.578615     0.673783     0.895147    Uiso  ? C
   H417       1.0     0.575139     0.688605     0.883884    Uiso  ? H
   C692       1.0     0.595224     0.677037     0.113111    Uiso  ? C
   H418       1.0     0.605470     0.692330     0.113606    Uiso  ? H
   C693       1.0     0.599114     0.659260     0.128220    Uiso  ? C
   H419       1.0     0.610626     0.661389     0.142158    Uiso  ? H
   C694       1.0     0.586867     0.637915     0.127080    Uiso  ? C
   C695       1.0     0.569581     0.636250     0.110049    Uiso  ? C
   H420       1.0     0.558751     0.620665     0.111461    Uiso  ? H
   C696       1.0     0.591682     0.618745     0.144778    Uiso  ? C
   C697       1.0     0.485364     0.663065     0.887347    Uiso  ? C
   C698       1.0     0.475051     0.670169     0.109568    Uiso  ? C
   C699       1.0     0.466592     0.692014     0.112967    Uiso  ? C
   H421       1.0     0.465232     0.703626     0.898928    Uiso  ? H
   C700       1.0     0.456409     0.698755     0.134170    Uiso  ? C
   H422       1.0     0.450933     0.716106     0.137470    Uiso  ? H
   C701       1.0     0.453960     0.682168     0.151336    Uiso  ? C
   H423       1.0     0.443551     0.687309     0.165688    Uiso  ? H
   C702       1.0     0.460925     0.659422     0.148045    Uiso  ? C
   C703       1.0     0.471602     0.652909     0.127089    Uiso  ? C
   H424       1.0     0.480261     0.636305     0.127051    Uiso  ? H
   C704       1.0     0.455610     0.641934     0.165767    Uiso  ? C
   C705       1.0     0.399145     0.521537     0.760822    Uiso  ? C
   C706       1.0     0.392594     0.497408     0.755683    Uiso  ? C
   C707       1.0     0.380104     0.492972     0.735662    Uiso  ? C
   H425       1.0     0.376716     0.505350     0.721650    Uiso  ? H
   C708       1.0     0.371120     0.470673     0.731355    Uiso  ? C
   H426       1.0     0.360921     0.466685     0.716417    Uiso  ? H
   C709       1.0     0.375596     0.451972     0.745824    Uiso  ? C
   H427       1.0     0.367653     0.434512     0.742296    Uiso  ? H
   C710       1.0     0.389790     0.456360     0.765564    Uiso  ? C
   C711       1.0     0.396135     0.479579     0.771017    Uiso  ? C
   H428       1.0     0.405074     0.481650     0.787006    Uiso  ? H
   C712       1.0     0.393150     0.437269     0.781682    Uiso  ? C
   C713       1.0     0.446918     0.558466     0.745679    Uiso  ? C
   C714       1.0     0.467491     0.557787     0.730509    Uiso  ? C
   C715       1.0     0.466590     0.563285     0.706826    Uiso  ? C
   H429       1.0     0.450864     0.569294     0.697870    Uiso  ? H
   C716       1.0     0.485749     0.563313     0.692331    Uiso  ? C
   H430       1.0     0.484021     0.567803     0.674210    Uiso  ? H
   C717       1.0     0.507250     0.557827     0.702359    Uiso  ? C
   H431       1.0     0.521508     0.558288     0.690766    Uiso  ? H
   C718       1.0     0.508488     0.550705     0.725348    Uiso  ? C
   C719       1.0     0.488491     0.550963     0.739517    Uiso  ? C
   H432       1.0     0.490998     0.549346     0.756574    Uiso  ? H
   C720       1.0     0.531318     0.546386     0.736606    Uiso  ? C
   C721       1.0     0.379229     0.559149     0.800357    Uiso  ? C
   C722       1.0     0.358536     0.559135     0.815396    Uiso  ? C
   C723       1.0     0.339054     0.572711     0.809938    Uiso  ? C
   H433       1.0     0.337288     0.581619     0.793734    Uiso  ? H
   C724       1.0     0.320763     0.573353     0.825276    Uiso  ? C
   H434       1.0     0.305176     0.581429     0.819853    Uiso  ? H
   C725       1.0     0.321801     0.562392     0.846199    Uiso  ? C
   H435       1.0     0.307212     0.563798     0.856260    Uiso  ? H
   C726       1.0     0.340067     0.549021     0.851966    Uiso  ? C
   C727       1.0     0.358410     0.546564     0.836206    Uiso  ? C
   H436       1.0     0.373563     0.536098     0.840708    Uiso  ? H
   C728       1.0     0.340134     0.536909     0.872771    Uiso  ? C
   C729       1.0     0.571434     0.502320     0.741560    Uiso  ? C
   C730       1.0     0.573136     0.478252     0.733574    Uiso  ? C
   C731       1.0     0.579818     0.472288     0.710193    Uiso  ? C
   H437       1.0     0.584051     0.485458     0.696766    Uiso  ? H
   C732       1.0     0.583497     0.448493     0.705423    Uiso  ? C
   H438       1.0     0.592418     0.445340     0.689922    Uiso  ? H
   C733       1.0     0.578504     0.430838     0.721030    Uiso  ? C
   H439       1.0     0.579918     0.411890     0.716454    Uiso  ? H
   C734       1.0     0.569177     0.436448     0.742592    Uiso  ? C
   C735       1.0     0.565740     0.460683     0.748385    Uiso  ? C
   H440       1.0     0.558085     0.464945     0.765739    Uiso  ? H
   C736       1.0     0.563776     0.418868     0.759687    Uiso  ? C
   C737       1.0     0.607770     0.535375     0.776897    Uiso  ? C
   C738       1.0     0.629751     0.531868     0.787717    Uiso  ? C
   C739       1.0     0.650373     0.533209     0.775062    Uiso  ? C
   H441       1.0     0.650409     0.539760     0.757407    Uiso  ? H
   C740       1.0     0.670965     0.525873     0.783233    Uiso  ? C
   H442       1.0     0.687050     0.530061     0.774149    Uiso  ? H
   C741       1.0     0.672687     0.516130     0.805160    Uiso  ? C
   H443       1.0     0.689264     0.509155     0.811027    Uiso  ? H
   C742       1.0     0.652420     0.513153     0.818485    Uiso  ? C
   C743       1.0     0.631109     0.523250     0.810399    Uiso  ? C
   H444       1.0     0.614495     0.521088     0.819472    Uiso  ? H
   C744       1.0     0.652532     0.500254     0.839718    Uiso  ? C
   C745       1.0     0.336253     0.483871     0.887365    Uiso  ? C
   C746       1.0     0.331461     0.465387     0.870759    Uiso  ? C
   C747       1.0     0.309448     0.455225     0.869644    Uiso  ? C
   H445       1.0     0.294383     0.462183     0.877649    Uiso  ? H
   C748       1.0     0.305975     0.435561     0.855250    Uiso  ? C
   H446       1.0     0.289631     0.427735     0.855808    Uiso  ? H
   C749       1.0     0.324910     0.424147     0.844884    Uiso  ? C
   H447       1.0     0.321373     0.408301     0.834496    Uiso  ? H
   C750       1.0     0.346402     0.434506     0.845821    Uiso  ? C
   C751       1.0     0.349742     0.454643     0.859097    Uiso  ? C
   H448       1.0     0.366556     0.463023     0.859457    Uiso  ? H
   C752       1.0     0.366399     0.423709     0.833310    Uiso  ? C
   C753       1.0     0.350212     0.558250     0.130189    Uiso  ? C
   C754       1.0     0.356681     0.580118     0.141463    Uiso  ? C
   C755       1.0     0.340676     0.598145     0.144846    Uiso  ? C
   H449       1.0     0.322039     0.596315     0.138893    Uiso  ? H
   C756       1.0     0.347311     0.617630     0.157026    Uiso  ? C
   H450       1.0     0.333413     0.630022     0.160286    Uiso  ? H
   C757       1.0     0.368373     0.619639     0.168132    Uiso  ? C
   H451       1.0     0.370259     0.633544     0.179204    Uiso  ? H
   C758       1.0     0.384501     0.601773     0.165965    Uiso  ? C
   C759       1.0     0.378913     0.583151     0.151093    Uiso  ? C
   H452       1.0     0.392899     0.569284     0.149446    Uiso  ? H
   C760       1.0     0.407445     0.604603     0.176349    Uiso  ? C
   C761       1.0     0.485510     0.611801     0.209314    Uiso  ? C
   C762       1.0     0.510082     0.616532     0.216246    Uiso  ? C
   C763       1.0     0.516070     0.627249     0.237180    Uiso  ? C
   H453       1.0     0.503036     0.633011     0.248792    Uiso  ? H
   C764       1.0     0.538676     0.630332     0.244850    Uiso  ? C
   H454       1.0     0.541163     0.637936     0.262112    Uiso  ? H
   C765       1.0     0.556397     0.620781     0.232013    Uiso  ? C
   H455       1.0     0.573828     0.621514     0.238160    Uiso  ? H
   C766       1.0     0.551008     0.609298     0.211481    Uiso  ? C
   C767       1.0     0.528079     0.607207     0.203645    Uiso  ? C
   H456       1.0     0.525523     0.599774     0.187037    Uiso  ? H
   C768       1.0     0.570813     0.601300     0.197405    Uiso  ? C
   O379       1.0     0.483326     0.629685     0.837338    Uiso  ? O
   O380       1.0     0.485942     0.668977     0.832064    Uiso  ? O
   O381       1.0     0.525630     0.625028     0.835540    Uiso  ? O
   O382       1.0     0.533889     0.663308     0.828963    Uiso  ? O
   O383       1.0     0.533372     0.633004     0.878020    Uiso  ? O
   O384       1.0     0.535178     0.670835     0.870543    Uiso  ? O
   O385       1.0     0.491569     0.642405     0.883159    Uiso  ? O
   O386       1.0     0.491775     0.679167     0.873363    Uiso  ? O
   O387       1.0     0.413464     0.524506     0.777152    Uiso  ? O
   O388       1.0     0.391484     0.538391     0.748729    Uiso  ? O
   O389       1.0     0.448536     0.551860     0.767152    Uiso  ? O
   O390       1.0     0.426940     0.565612     0.737531    Uiso  ? O
   O391       1.0     0.429787     0.582514     0.794259    Uiso  ? O
   O392       1.0     0.408061     0.597338     0.765109    Uiso  ? O
   O393       1.0     0.398715     0.550871     0.807732    Uiso  ? O
   O394       1.0     0.378356     0.567398     0.778432    Uiso  ? O
   O395       1.0     0.561774     0.507481     0.761454    Uiso  ? O
   O396       1.0     0.580691     0.518712     0.729143    Uiso  ? O
   O397       1.0     0.588099     0.530627     0.787332    Uiso  ? O
   O398       1.0     0.607471     0.543823     0.755863    Uiso  ? O
   O399       1.0     0.559693     0.566540     0.780339    Uiso  ? O
   O400       1.0     0.579775     0.578224     0.749305    Uiso  ? O
   O401       1.0     0.531454     0.537815     0.757606    Uiso  ? O
   O402       1.0     0.550302     0.551608     0.725657    Uiso  ? O
   O403       1.0     0.357763     0.490639     0.890383    Uiso  ? O
   O404       1.0     0.319134     0.496820     0.895905    Uiso  ? O
   O405       1.0     0.360003     0.530208     0.880010    Uiso  ? O
   O406       1.0     0.321657     0.536812     0.886234    Uiso  ? O
   O407       1.0     0.367986     0.545779     0.122061    Uiso  ? O
   O408       1.0     0.329245     0.551401     0.127261    Uiso  ? O
   O409       1.0     0.362916     0.500154     0.134852    Uiso  ? O
   O410       1.0     0.324548     0.508111     0.140623    Uiso  ? O
   O411       1.0     0.423789     0.591018     0.169366    Uiso  ? O
   O412       1.0     0.412177     0.620866     0.191884    Uiso  ? O
   O413       1.0     0.457629     0.619728     0.160860    Uiso  ? O
   O414       1.0     0.448440     0.647258     0.186583    Uiso  ? O
   O415       1.0     0.481885     0.598670     0.191080    Uiso  ? O
   O416       1.0     0.468292     0.623485     0.219319    Uiso  ? O
   O417       1.0     0.446561     0.576904     0.204872    Uiso  ? O
   O418       1.0     0.429685     0.603554     0.227021    Uiso  ? O
   O419       1.0     0.415150     0.396095     0.842515    Uiso  ? O
   O420       1.0     0.390880     0.371827     0.822603    Uiso  ? O
   O421       1.0     0.436583     0.407093     0.804433    Uiso  ? O
   O422       1.0     0.410848     0.385895     0.784025    Uiso  ? O
   O423       1.0     0.407951     0.439849     0.798326    Uiso  ? O
   O424       1.0     0.381041     0.418577     0.779542    Uiso  ? O
   O425       1.0     0.387714     0.430665     0.837467    Uiso  ? O
   O426       1.0     0.362914     0.407156     0.818533    Uiso  ? O
   O427       1.0     0.502299     0.598632     0.868802    Uiso  ? O
   O428       1.0     0.446514     0.541278     0.809941    Uiso  ? O
   O429       1.0     0.542015     0.528098     0.801120    Uiso  ? O
   O430       1.0     0.396529     0.513699     0.102344    Uiso  ? O
   O431       1.0     0.464414     0.571030     0.160439    Uiso  ? O
   O432       1.0     0.433987     0.441487     0.837940    Uiso  ? O
   Zn85       1.0     0.506846     0.628821     0.859637    Uiso  ? Zn
   Zn86       1.0     0.511040     0.674332     0.850034    Uiso  ? Zn
   Zn87       1.0     0.425012     0.552298     0.788840    Uiso  ? Zn
   Zn88       1.0     0.399441     0.569027     0.755200    Uiso  ? Zn
   Zn89       1.0     0.558704     0.534955     0.774018    Uiso  ? Zn
   Zn90       1.0     0.581312     0.549623     0.736009    Uiso  ? Zn
   Zn91       1.0     0.365270     0.517952     0.106504    Uiso  ? Zn
   Zn92       1.0     0.320111     0.524104     0.113552    Uiso  ? Zn
   Zn93       1.0     0.453991     0.594292     0.178453    Uiso  ? Zn
   Zn94       1.0     0.437922     0.626967     0.207191    Uiso  ? Zn
   Zn95       1.0     0.414225     0.420865     0.822138    Uiso  ? Zn
   Zn96       1.0     0.384385     0.393784     0.799394    Uiso  ? Zn
   H457       1.0     0.441228     0.545192     0.826040    Uiso  ? H
   H458       1.0     0.443332     0.524717     0.807810    Uiso  ? H
   H459       1.0     0.549833     0.447723     0.164215    Uiso  ? H
   H460       1.0     0.562045     0.472038     0.171678    Uiso  ? H
   H461       1.0     0.553772     0.558869     0.150304    Uiso  ? H
   H462       1.0     0.571799     0.537390     0.151896    Uiso  ? H
   H463       1.0     0.605142     0.477791     0.103183    Uiso  ? H
   H464       1.0     0.595721     0.466460     0.879453    Uiso  ? H
   H465       1.0     0.445453     0.447275     0.826313    Uiso  ? H
   H466       1.0     0.424705     0.456507     0.840301    Uiso  ? H
   H467       1.0     0.506981     0.403841     0.116175    Uiso  ? H
   H468       1.0     0.488636     0.408687     0.135523    Uiso  ? H
   H469       1.0     0.535644     0.441901     0.817115    Uiso  ? H
   H470       1.0     0.548476     0.428941     0.838534    Uiso  ? H
   H471       1.0     0.403019     0.528210     0.900000    Uiso  ? H
   H472       1.0     0.404489     0.507780     0.116552    Uiso  ? H
   H473       1.0     0.458878     0.457182     0.176631    Uiso  ? H
   H474       1.0     0.465032     0.482164     0.185189    Uiso  ? H
   H475       1.0     0.462128     0.557786     0.170618    Uiso  ? H
   H476       1.0     0.453908     0.569534     0.146592    Uiso  ? H
   H477       1.0     0.552105     0.531483     0.814644    Uiso  ? H
   H478       1.0     0.541108     0.511498     0.803052    Uiso  ? H
   H479       1.0     0.508669     0.589593     0.857561    Uiso  ? H
   H480       1.0     0.486021     0.592542     0.871668    Uiso  ? H
   C769       1.0     0.635646     0.406261     0.257504    Uiso  ? C
   C770       1.0     0.638525     0.393129     0.277203    Uiso  ? C
   C771       1.0     0.603627     0.402259     0.274280    Uiso  ? C
   N1         1.0     0.613276     0.411811     0.256124    Uiso  ? N
   H481       1.0     0.649163     0.410083     0.244766    Uiso  ? H
   H482       1.0     0.653146     0.381506     0.281123    Uiso  ? H
   H483       1.0     0.585866     0.402810     0.276573    Uiso  ? H
   N2         1.0     0.618267     0.389663     0.287976    Uiso  ? N
   C772       1.0     0.613513     0.375266     0.308506    Uiso  ? C
   H484       1.0     0.627441     0.376103     0.320638    Uiso  ? H
   H485       1.0     0.598115     0.380921     0.317219    Uiso  ? H
   C773       1.0     0.609851     0.350777     0.301086    Uiso  ? C
   C774       1.0     0.625677     0.333605     0.305307    Uiso  ? C
   C775       1.0     0.588049     0.343557     0.293198    Uiso  ? C
   C776       1.0     0.623085     0.310255     0.299153    Uiso  ? C
   H486       1.0     0.642633     0.336687     0.312703    Uiso  ? H
   C777       1.0     0.583704     0.320485     0.288318    Uiso  ? C
   H487       1.0     0.576083     0.355944     0.288470    Uiso  ? H
   C778       1.0     0.601124     0.303134     0.291003    Uiso  ? C
   H488       1.0     0.636071     0.298195     0.301467    Uiso  ? H
   H489       1.0     0.566817     0.315921     0.283836    Uiso  ? H
   C779       1.0     0.597081     0.278189     0.285325    Uiso  ? C
   C780       1.0     0.585323     0.272628     0.265177    Uiso  ? C
   C781       1.0     0.606382     0.260106     0.299189    Uiso  ? C
   C782       1.0     0.581604     0.249826     0.258676    Uiso  ? C
   H490       1.0     0.578577     0.285910     0.254700    Uiso  ? H
   C783       1.0     0.604132     0.237612     0.292351    Uiso  ? C
   H491       1.0     0.612139     0.264519     0.316310    Uiso  ? H
   C784       1.0     0.592845     0.232682     0.271518    Uiso  ? C
   H492       1.0     0.572925     0.244817     0.243012    Uiso  ? H
   H493       1.0     0.609261     0.223344     0.303971    Uiso  ? H
   C785       1.0     0.588962     0.208012     0.266248    Uiso  ? C
   H494       1.0     0.587153     0.204088     0.247125    Uiso  ? H
   H495       1.0     0.605009     0.197611     0.272569    Uiso  ? H
   N3         1.0     0.568023     0.198536     0.278904    Uiso  ? N
   C786       1.0     0.546661     0.196557     0.271251    Uiso  ? C
   C787       1.0     0.568042     0.188898     0.300121    Uiso  ? C
   C788       1.0     0.534247     0.186439     0.288573    Uiso  ? C
   H496       1.0     0.540231     0.202416     0.254655    Uiso  ? H
   H497       1.0     0.583500     0.187977     0.311461    Uiso  ? H
   H498       1.0     0.515823     0.180653     0.288081    Uiso  ? H
   N4         1.0     0.547263     0.182133     0.307041    Uiso  ? N
   C789       1.0     0.529270     0.679714     0.443943    Uiso  ? C
   C790       1.0     0.534633     0.661070     0.429830    Uiso  ? C
   C791       1.0     0.539788     0.693404     0.410596    Uiso  ? C
   N5         1.0     0.531166     0.699421     0.431251    Uiso  ? N
   H499       1.0     0.524752     0.679940     0.461840    Uiso  ? H
   H500       1.0     0.534793     0.642978     0.434604    Uiso  ? H
   H501       1.0     0.540725     0.705233     0.395288    Uiso  ? H
   N6         1.0     0.542355     0.670109     0.409763    Uiso  ? N
   C792       1.0     0.547679     0.657391     0.389058    Uiso  ? C
   H502       1.0     0.566994     0.660437     0.383369    Uiso  ? H
   H503       1.0     0.546878     0.638198     0.391642    Uiso  ? H
   C793       1.0     0.530264     0.663740     0.370849    Uiso  ? C
   C794       1.0     0.538566     0.668404     0.348982    Uiso  ? C
   C795       1.0     0.506753     0.663734     0.375308    Uiso  ? C
   C796       1.0     0.524069     0.675709     0.330565    Uiso  ? C
   H504       1.0     0.555705     0.665555     0.345551    Uiso  ? H
   C797       1.0     0.492425     0.670499     0.357054    Uiso  ? C
   H505       1.0     0.500846     0.661779     0.392520    Uiso  ? H
   C798       1.0     0.500760     0.676458     0.334821    Uiso  ? C
   H506       1.0     0.531705     0.676375     0.313267    Uiso  ? H
   H507       1.0     0.474054     0.672344     0.361091    Uiso  ? H
   C799       1.0     0.484190     0.681088     0.315017    Uiso  ? C
   C800       1.0     0.462806     0.669436     0.313155    Uiso  ? C
   C801       1.0     0.489152     0.697761     0.298128    Uiso  ? C
   C802       1.0     0.445941     0.674520     0.296171    Uiso  ? C
   H508       1.0     0.458159     0.656047     0.325889    Uiso  ? H
   C803       1.0     0.470720     0.704563     0.282934    Uiso  ? C
   H509       1.0     0.506491     0.706303     0.296782    Uiso  ? H
   C804       1.0     0.449330     0.693259     0.282395    Uiso  ? C
   H510       1.0     0.430351     0.663601     0.295605    Uiso  ? H
   H511       1.0     0.471769     0.719556     0.272340    Uiso  ? H
   C805       1.0     0.430957     0.700251     0.265938    Uiso  ? C
   H512       1.0     0.416715     0.708146     0.276923    Uiso  ? H
   H513       1.0     0.436906     0.713920     0.253741    Uiso  ? H
   N7         1.0     0.424574     0.680199     0.251142    Uiso  ? N
   C806       1.0     0.404789     0.669891     0.250657    Uiso  ? C
   C807       1.0     0.438702     0.668640     0.236082    Uiso  ? C
   C808       1.0     0.406384     0.651441     0.235604    Uiso  ? C
   H514       1.0     0.389270     0.674530     0.259870    Uiso  ? H
   H515       1.0     0.456045     0.672877     0.231954    Uiso  ? H
   H516       1.0     0.393143     0.639623     0.232902    Uiso  ? H
   N8         1.0     0.428124     0.650250     0.227140    Uiso  ? N
   C809       1.0     0.436396     0.827441     0.709810    Uiso  ? C
   C810       1.0     0.430964     0.810640     0.725244    Uiso  ? C
   C811       1.0     0.449266     0.795238     0.697853    Uiso  ? C
   N9         1.0     0.446347     0.817546     0.691720    Uiso  ? N
   H517       1.0     0.430203     0.845724     0.712138    Uiso  ? H
   H518       1.0     0.421996     0.812926     0.741305    Uiso  ? H
   H519       1.0     0.456827     0.783742     0.685916    Uiso  ? H
   N10        1.0     0.439021     0.790246     0.717895    Uiso  ? N
   C812       1.0     0.438812     0.768930     0.730984    Uiso  ? C
   H520       1.0     0.455113     0.766673     0.740830    Uiso  ? H
   H521       1.0     0.423923     0.768628     0.743545    Uiso  ? H
   C813       1.0     0.433573     0.748060     0.715494    Uiso  ? C
   C814       1.0     0.448020     0.728866     0.715731    Uiso  ? C
   C815       1.0     0.411109     0.745717     0.706773    Uiso  ? C
   C816       1.0     0.440013     0.706986     0.708274    Uiso  ? C
   H522       1.0     0.465446     0.731213     0.720645    Uiso  ? H
   C817       1.0     0.402767     0.723584     0.699699    Uiso  ? C
   H523       1.0     0.399212     0.759678     0.706483    Uiso  ? H
   C818       1.0     0.415685     0.703877     0.702562    Uiso  ? C
   H524       1.0     0.450435     0.691619     0.706957    Uiso  ? H
   H525       1.0     0.385641     0.721289     0.693269    Uiso  ? H
   C819       1.0     0.406703     0.681669     0.697603    Uiso  ? C
   C820       1.0     0.414884     0.668791     0.678619    Uiso  ? C
   C821       1.0     0.388123     0.673619     0.711463    Uiso  ? C
   C822       1.0     0.404361     0.647427     0.674308    Uiso  ? C
   H526       1.0     0.428027     0.676168     0.666964    Uiso  ? H
   C823       1.0     0.377255     0.652961     0.706096    Uiso  ? C
   H527       1.0     0.381153     0.683122     0.726009    Uiso  ? H
   C824       1.0     0.385188     0.639851     0.687221    Uiso  ? C
   H528       1.0     0.409176     0.638260     0.660030    Uiso  ? H
   H529       1.0     0.360788     0.648195     0.714730    Uiso  ? H
   C825       1.0     0.372071     0.617877     0.680465    Uiso  ? C
   H530       1.0     0.354160     0.622786     0.673821    Uiso  ? H
   H531       1.0     0.381653     0.609385     0.666580    Uiso  ? H
   N11        1.0     0.370851     0.602701     0.700428    Uiso  ? N
   C826       1.0     0.351860     0.597041     0.712291    Uiso  ? C
   C827       1.0     0.388872     0.593146     0.712309    Uiso  ? C
   C828       1.0     0.358212     0.582720     0.729943    Uiso  ? C
   H532       1.0     0.334543     0.600007     0.707156    Uiso  ? H
   H533       1.0     0.406957     0.595712     0.708069    Uiso  ? H
   H534       1.0     0.346062     0.575769     0.742641    Uiso  ? H
   N12        1.0     0.381538     0.581709     0.731165    Uiso  ? N
   C829       1.0     0.599350     0.350679     0.744679    Uiso  ? C
   C830       1.0     0.601345     0.329912     0.733833    Uiso  ? C
   C831       1.0     0.567888     0.331876     0.748156    Uiso  ? C
   N13        1.0     0.579062     0.350593     0.755119    Uiso  ? N
   H535       1.0     0.612641     0.363706     0.745386    Uiso  ? H
   H536       1.0     0.615905     0.325502     0.722385    Uiso  ? H
   H537       1.0     0.550433     0.328584     0.754014    Uiso  ? H
   N14        1.0     0.580529     0.318615     0.734785    Uiso  ? N
   C832       1.0     0.572642     0.299030     0.720682    Uiso  ? C
   H538       1.0     0.587400     0.294293     0.708604    Uiso  ? H
   H539       1.0     0.569811     0.282745     0.730647    Uiso  ? H
   C833       1.0     0.552856     0.306844     0.705858    Uiso  ? C
   C834       1.0     0.557246     0.323950     0.688805    Uiso  ? C
   C835       1.0     0.530497     0.298764     0.708328    Uiso  ? C
   C836       1.0     0.539784     0.331464     0.673911    Uiso  ? C
   H540       1.0     0.575324     0.330154     0.685223    Uiso  ? H
   C837       1.0     0.512476     0.307612     0.694616    Uiso  ? C
   H541       1.0     0.527453     0.285584     0.721004    Uiso  ? H
   C838       1.0     0.517042     0.322962     0.676719    Uiso  ? C
   H542       1.0     0.546024     0.342135     0.660515    Uiso  ? H
   H543       1.0     0.494644     0.302079     0.697658    Uiso  ? H
   C839       1.0     0.498436     0.328161     0.659616    Uiso  ? C
   C840       1.0     0.480641     0.312143     0.655969    Uiso  ? C
   C841       1.0     0.498130     0.349513     0.647429    Uiso  ? C
   C842       1.0     0.463853     0.316344     0.639591    Uiso  ? C
   H544       1.0     0.483686     0.294757     0.662385    Uiso  ? H
   C843       1.0     0.480059     0.354296     0.632179    Uiso  ? C
   H545       1.0     0.510748     0.362593     0.649954    Uiso  ? H
   C844       1.0     0.462984     0.337719     0.627831    Uiso  ? C
   H546       1.0     0.449910     0.303915     0.634973    Uiso  ? H
   H547       1.0     0.479355     0.371000     0.622523    Uiso  ? H
   C845       1.0     0.443546     0.342617     0.611123    Uiso  ? C
   H548       1.0     0.427589     0.335700     0.619846    Uiso  ? H
   H549       1.0     0.440578     0.361352     0.609837    Uiso  ? H
   N15        1.0     0.448680     0.331926     0.589324    Uiso  ? N
   C846       1.0     0.459831     0.341602     0.571609    Uiso  ? C
   C847       1.0     0.444835     0.310133     0.582784    Uiso  ? C
   C848       1.0     0.464540     0.324756     0.555660    Uiso  ? C
   H550       1.0     0.464337     0.360272     0.570044    Uiso  ? H
   H551       1.0     0.436326     0.296845     0.594381    Uiso  ? H
   H552       1.0     0.474249     0.328603     0.540178    Uiso  ? H
   N16        1.0     0.458114     0.304212     0.563969    Uiso  ? N
   C849       1.0     0.652057     0.269218     0.463237    Uiso  ? C
   C850       1.0     0.670903     0.283399     0.467572    Uiso  ? C
   C851       1.0     0.668391     0.258148     0.495059    Uiso  ? C
   N17        1.0     0.651369     0.252736     0.480246    Uiso  ? N
   H553       1.0     0.638368     0.272595     0.449870    Uiso  ? H
   H554       1.0     0.675286     0.299877     0.459429    Uiso  ? H
   H555       1.0     0.673776     0.247640     0.509228    Uiso  ? H
   N18        1.0     0.681575     0.275428     0.486877    Uiso  ? N
   C852       1.0     0.701033     0.286681     0.498015    Uiso  ? C
   H556       1.0     0.710921     0.273093     0.506514    Uiso  ? H
   H557       1.0     0.712961     0.295185     0.486829    Uiso  ? H
   C853       1.0     0.692165     0.302966     0.515661    Uiso  ? C
   C854       1.0     0.687847     0.297696     0.538059    Uiso  ? C
   C855       1.0     0.685975     0.324844     0.506733    Uiso  ? C
   C856       1.0     0.679122     0.314589     0.553305    Uiso  ? C
   H558       1.0     0.691651     0.279749     0.543444    Uiso  ? H
   C857       1.0     0.676638     0.341179     0.521228    Uiso  ? C
   H559       1.0     0.689744     0.328516     0.489269    Uiso  ? H
   C858       1.0     0.676101     0.338151     0.545324    Uiso  ? C
   H560       1.0     0.674715     0.308685     0.570045    Uiso  ? H
   H561       1.0     0.671435     0.356686     0.512220    Uiso  ? H
   C859       1.0     0.669150     0.357142     0.561194    Uiso  ? C
   C860       1.0     0.655781     0.376400     0.554535    Uiso  ? C
   C861       1.0     0.677179     0.356907     0.583766    Uiso  ? C
   C862       1.0     0.652363     0.395075     0.568753    Uiso  ? C
   H562       1.0     0.649422     0.379950     0.538376    Uiso  ? H
   C863       1.0     0.675293     0.376809     0.597640    Uiso  ? C
   H563       1.0     0.687611     0.343238     0.590494    Uiso  ? H
   C864       1.0     0.664573     0.396537     0.589409    Uiso  ? C
   H564       1.0     0.647320     0.411274     0.560216    Uiso  ? H
   H565       1.0     0.685269     0.378381     0.612838    Uiso  ? H
   C865       1.0     0.663493     0.417921     0.604524    Uiso  ? C
   H566       1.0     0.651231     0.431007     0.596543    Uiso  ? H
   H567       1.0     0.656770     0.414428     0.621382    Uiso  ? H
   N19        1.0     0.686903     0.427069     0.607608    Uiso  ? N
   C866       1.0     0.695884     0.434358     0.627527    Uiso  ? C
   C867       1.0     0.702510     0.432094     0.591209    Uiso  ? C
   C868       1.0     0.716852     0.444027     0.623846    Uiso  ? C
   H568       1.0     0.689059     0.432227     0.644376    Uiso  ? H
   H569       1.0     0.702036     0.428339     0.573127    Uiso  ? H
   H570       1.0     0.728319     0.451753     0.635429    Uiso  ? H
   N20        1.0     0.721187     0.441963     0.600655    Uiso  ? N
   C869       1.0     0.633553     0.754152     0.615206    Uiso  ? C
   C870       1.0     0.654594     0.746616     0.622970    Uiso  ? C
   C871       1.0     0.659778     0.775737     0.601528    Uiso  ? C
   N21        1.0     0.636716     0.772780     0.601483    Uiso  ? N
   H571       1.0     0.617223     0.747246     0.620191    Uiso  ? H
   H572       1.0     0.657196     0.734982     0.637871    Uiso  ? H
   H573       1.0     0.667719     0.788515     0.590322    Uiso  ? H
   N22        1.0     0.670484     0.760649     0.614100    Uiso  ? N
   C872       1.0     0.695613     0.757741     0.617285    Uiso  ? C
   H574       1.0     0.702610     0.771893     0.627720    Uiso  ? H
   H575       1.0     0.698415     0.741365     0.626683    Uiso  ? H
   C873       1.0     0.707615     0.754126     0.593371    Uiso  ? C
   C874       1.0     0.710869     0.731180     0.585349    Uiso  ? C
   C875       1.0     0.712474     0.773044     0.579029    Uiso  ? C
   C876       1.0     0.719817     0.727382     0.563050    Uiso  ? C
   H576       1.0     0.704084     0.716400     0.595991    Uiso  ? H
   C877       1.0     0.721876     0.769129     0.557124    Uiso  ? C
   H577       1.0     0.706873     0.788807     0.584034    Uiso  ? H
   C878       1.0     0.725817     0.746162     0.548808    Uiso  ? C
   H578       1.0     0.720433     0.709271     0.557327    Uiso  ? H
   H579       1.0     0.723180     0.783804     0.544818    Uiso  ? H
   C879       1.0     0.735983     0.741788     0.525944    Uiso  ? C
   C880       1.0     0.754173     0.755496     0.516888    Uiso  ? C
   C881       1.0     0.725907     0.725157     0.511803    Uiso  ? C
   C882       1.0     0.761642     0.752021     0.494025    Uiso  ? C
   H580       1.0     0.762777     0.769069     0.527879    Uiso  ? H
   C883       1.0     0.735576     0.720060     0.489973    Uiso  ? C
   H581       1.0     0.710826     0.716365     0.517399    Uiso  ? H
   C884       1.0     0.752858     0.734328     0.480320    Uiso  ? C
   H582       1.0     0.776182     0.761488     0.487619    Uiso  ? H
   H583       1.0     0.727919     0.705666     0.479780    Uiso  ? H
   C885       1.0     0.760020     0.732093     0.454618    Uiso  ? C
   H584       1.0     0.746090     0.721556     0.445399    Uiso  ? H
   H585       1.0     0.759234     0.749261     0.445028    Uiso  ? H
   N23        1.0     0.782793     0.720769     0.454587    Uiso  ? N
   C886       1.0     0.802700     0.729325     0.446695    Uiso  ? C
   C887       1.0     0.788733     0.699880     0.463111    Uiso  ? C
   C888       1.0     0.820145     0.712897     0.449527    Uiso  ? C
   H586       1.0     0.803335     0.745874     0.438227    Uiso  ? H
   H587       1.0     0.775775     0.688121     0.469893    Uiso  ? H
   H588       1.0     0.838220     0.715202     0.445831    Uiso  ? H
   N24        1.0     0.811323     0.695398     0.461027    Uiso  ? N
   C889       1.0     0.204433     0.301389     0.568349    Uiso  ? C
   C890       1.0     0.214425     0.278678     0.564282    Uiso  ? C
   C891       1.0     0.195398     0.289285     0.534235    Uiso  ? C
   N25        1.0     0.192699     0.306873     0.549132    Uiso  ? N
   H589       1.0     0.207443     0.312394     0.582722    Uiso  ? H
   H590       1.0     0.226033     0.268427     0.575925    Uiso  ? H
   H591       1.0     0.189294     0.291049     0.516086    Uiso  ? H
   N26        1.0     0.208370     0.271880     0.542602    Uiso  ? N
   C892       1.0     0.214680     0.250527     0.531272    Uiso  ? C
   H592       1.0     0.222164     0.237398     0.544085    Uiso  ? H
   H593       1.0     0.198552     0.243702     0.523339    Uiso  ? H
   C893       1.0     0.230320     0.255996     0.511944    Uiso  ? C
   C894       1.0     0.222879     0.265538     0.491203    Uiso  ? C
   C895       1.0     0.254194     0.251914     0.514205    Uiso  ? C
   C896       1.0     0.238023     0.271749     0.473597    Uiso  ? C
   H594       1.0     0.204078     0.268231     0.487745    Uiso  ? H
   C897       1.0     0.269489     0.257630     0.496567    Uiso  ? C
   H595       1.0     0.261061     0.245597     0.530835    Uiso  ? H
   C898       1.0     0.262107     0.267383     0.475999    Uiso  ? C
   H596       1.0     0.231343     0.279285     0.456402    Uiso  ? H
   H597       1.0     0.287583     0.254180     0.499890    Uiso  ? H
   C899       1.0     0.277731     0.270426     0.455738    Uiso  ? C
   C900       1.0     0.299353     0.280421     0.458426    Uiso  ? C
   C901       1.0     0.268987     0.267632     0.432517    Uiso  ? C
   C902       1.0     0.313005     0.285603     0.439698    Uiso  ? C
   H598       1.0     0.305517     0.284745     0.475486    Uiso  ? H
   C903       1.0     0.283534     0.270669     0.413469    Uiso  ? C
   H599       1.0     0.252124     0.260997     0.429394    Uiso  ? H
   C904       1.0     0.306023     0.280517     0.416853    Uiso  ? C
   H600       1.0     0.329621     0.291484     0.443567    Uiso  ? H
   H601       1.0     0.276711     0.268156     0.396346    Uiso  ? H
   C905       1.0     0.321590     0.282402     0.396549    Uiso  ? C
   H602       1.0     0.311585     0.289760     0.381930    Uiso  ? H
   H603       1.0     0.336362     0.292621     0.402090    Uiso  ? H
   N27        1.0     0.330683     0.259476     0.391362    Uiso  ? N
   C906       1.0     0.332079     0.248008     0.370934    Uiso  ? C
   C907       1.0     0.342655     0.245835     0.405782    Uiso  ? C
   C908       1.0     0.345209     0.228634     0.373807    Uiso  ? C
   H604       1.0     0.325085     0.254311     0.355208    Uiso  ? H
   H605       1.0     0.346874     0.248242     0.423948    Uiso  ? H
   H606       1.0     0.349513     0.215225     0.360923    Uiso  ? H
   N28        1.0     0.352704     0.227726     0.395005    Uiso  ? N
   C909       1.0     0.289377     0.590183     0.397975    Uiso  ? C
   C910       1.0     0.311745     0.596767     0.392508    Uiso  ? C
   C911       1.0     0.312791     0.567329     0.414700    Uiso  ? C
   N29        1.0     0.290321     0.571186     0.411259    Uiso  ? N
   H607       1.0     0.274014     0.598337     0.392986    Uiso  ? H
   H608       1.0     0.316282     0.612864     0.382437    Uiso  ? H
   H609       1.0     0.319386     0.553044     0.425408    Uiso  ? H
   N30        1.0     0.326367     0.582014     0.403254    Uiso  ? N
   C912       1.0     0.350800     0.585660     0.405021    Uiso  ? C
   H610       1.0     0.360918     0.568373     0.402801    Uiso  ? H
   H611       1.0     0.354031     0.595823     0.389564    Uiso  ? H
   C913       1.0     0.355722     0.601031     0.425287    Uiso  ? C
   C914       1.0     0.359758     0.591817     0.446935    Uiso  ? C
   C915       1.0     0.352654     0.623916     0.423521    Uiso  ? C
   C916       1.0     0.360379     0.605721     0.467279    Uiso  ? C
   H612       1.0     0.362747     0.574884     0.450083    Uiso  ? H
   C917       1.0     0.351111     0.638726     0.442359    Uiso  ? C
   H613       1.0     0.348150     0.630773     0.406833    Uiso  ? H
   C918       1.0     0.355346     0.629552     0.464206    Uiso  ? C
   H614       1.0     0.362542     0.597424     0.483835    Uiso  ? H
   H615       1.0     0.347941     0.655180     0.439403    Uiso  ? H
   C919       1.0     0.347856     0.642474     0.484736    Uiso  ? C
   C920       1.0     0.325224     0.651770     0.485209    Uiso  ? C
   C921       1.0     0.361805     0.645817     0.505306    Uiso  ? C
   C922       1.0     0.318681     0.666699     0.503388    Uiso  ? C
   H616       1.0     0.311754     0.649073     0.471609    Uiso  ? H
   C923       1.0     0.354997     0.659947     0.523477    Uiso  ? C
   H617       1.0     0.379022     0.638833     0.506215    Uiso  ? H
   C924       1.0     0.333147     0.671507     0.521641    Uiso  ? C
   H618       1.0     0.300905     0.672725     0.503169    Uiso  ? H
   H619       1.0     0.365565     0.660978     0.538423    Uiso  ? H
   C925       1.0     0.326962     0.689162     0.538711    Uiso  ? C
   H620       1.0     0.308794     0.687768     0.545676    Uiso  ? H
   H621       1.0     0.337827     0.687555     0.552996    Uiso  ? H
   N31        1.0     0.328800     0.712593     0.529054    Uiso  ? N
   C926       1.0     0.311460     0.724717     0.520529    Uiso  ? C
   C927       1.0     0.347977     0.725913     0.529075    Uiso  ? C
   C928       1.0     0.320258     0.745822     0.515425    Uiso  ? C
   H622       1.0     0.293876     0.717637     0.518390    Uiso  ? H
   H623       1.0     0.364535     0.720267     0.536540    Uiso  ? H
   H624       1.0     0.309133     0.758865     0.508436    Uiso  ? H
   N32        1.0     0.342900     0.747020     0.519862    Uiso  ? N
   C929       1.0     0.633641     0.648407     0.203776    Uiso  ? C
   C930       1.0     0.652062     0.655503     0.217557    Uiso  ? C
   C931       1.0     0.656673     0.619575     0.210144    Uiso  ? C
   N33        1.0     0.637194     0.625147     0.198956    Uiso  ? N
   H625       1.0     0.618046     0.657417     0.200466    Uiso  ? H
   H626       1.0     0.656463     0.671251     0.224480    Uiso  ? H
   H627       1.0     0.662919     0.601193     0.209714    Uiso  ? H
   N34        1.0     0.664749     0.636964     0.223314    Uiso  ? N
   C932       1.0     0.687007     0.635832     0.235651    Uiso  ? C
   H628       1.0     0.700089     0.632248     0.221519    Uiso  ? H
   H629       1.0     0.690388     0.651080     0.244569    Uiso  ? H
   C933       1.0     0.685501     0.616115     0.252296    Uiso  ? C
   C934       1.0     0.669873     0.617557     0.271103    Uiso  ? C
   C935       1.0     0.697380     0.594768     0.248402    Uiso  ? C
   C936       1.0     0.668128     0.599554     0.286880    Uiso  ? C
   H630       1.0     0.660756     0.633616     0.275781    Uiso  ? H
   C937       1.0     0.693847     0.576454     0.263218    Uiso  ? C
   H631       1.0     0.708816     0.592271     0.233216    Uiso  ? H
   C938       1.0     0.680536     0.578559     0.282749    Uiso  ? C
   H632       1.0     0.660373     0.603297     0.304047    Uiso  ? H
   H633       1.0     0.702020     0.560599     0.259256    Uiso  ? H
   C939       1.0     0.680129     0.559698     0.300133    Uiso  ? C
   C940       1.0     0.660891     0.555950     0.313233    Uiso  ? C
   C941       1.0     0.699007     0.544645     0.303945    Uiso  ? C
   C942       1.0     0.658190     0.536807     0.328020    Uiso  ? C
   H634       1.0     0.647137     0.567087     0.311435    Uiso  ? H
   C943       1.0     0.697446     0.525261     0.318525    Uiso  ? C
   H635       1.0     0.715423     0.548976     0.297873    Uiso  ? H
   C944       1.0     0.676351     0.521150     0.331313    Uiso  ? C
   H636       1.0     0.642060     0.534275     0.337321    Uiso  ? H
   H637       1.0     0.713499     0.515832     0.322365    Uiso  ? H
   C945       1.0     0.674903     0.503027     0.349565    Uiso  ? C
   H638       1.0     0.655617     0.501272     0.353446    Uiso  ? H
   H639       1.0     0.682191     0.485308     0.344227    Uiso  ? H
   N35        1.0     0.687730     0.511875     0.369774    Uiso  ? N
   C946       1.0     0.679654     0.526056     0.387094    Uiso  ? C
   C947       1.0     0.709993     0.507964     0.376514    Uiso  ? C
   C948       1.0     0.696500     0.528208     0.403935    Uiso  ? C
   H640       1.0     0.661272     0.533067     0.387906    Uiso  ? H
   H641       1.0     0.721817     0.498425     0.364989    Uiso  ? H
   H642       1.0     0.694869     0.537266     0.419792    Uiso  ? H
   N36        1.0     0.715389     0.517266     0.396798    Uiso  ? N
   C949       1.0     0.386461     0.454117     0.289759    Uiso  ? C
   C950       1.0     0.382382     0.440971     0.309176    Uiso  ? C
   C951       1.0     0.407381     0.422950     0.288882    Uiso  ? C
   N37        1.0     0.401985     0.442086     0.276851    Uiso  ? N
   H643       1.0     0.378052     0.470554     0.285866    Uiso  ? H
   H644       1.0     0.371784     0.445973     0.323036    Uiso  ? H
   H645       1.0     0.419671     0.411415     0.280759    Uiso  ? H
   N38        1.0     0.393842     0.420380     0.307897    Uiso  ? N
   C952       1.0     0.392972     0.400987     0.324565    Uiso  ? C
   H646       1.0     0.404444     0.386657     0.319466    Uiso  ? H
   H647       1.0     0.398523     0.405859     0.342507    Uiso  ? H
   C953       1.0     0.368797     0.392468     0.324727    Uiso  ? C
   C954       1.0     0.353941     0.393581     0.344459    Uiso  ? C
   C955       1.0     0.359686     0.382499     0.305262    Uiso  ? C
   C956       1.0     0.331913     0.385719     0.344088    Uiso  ? C
   H648       1.0     0.360409     0.402556     0.359142    Uiso  ? H
   C957       1.0     0.336560     0.376296     0.304380    Uiso  ? C
   H649       1.0     0.370713     0.381475     0.289536    Uiso  ? H
   C958       1.0     0.322634     0.378474     0.323892    Uiso  ? C
   H650       1.0     0.322477     0.388512     0.359581    Uiso  ? H
   H651       1.0     0.329670     0.369087     0.287860    Uiso  ? H
   C959       1.0     0.298858     0.371083     0.322750    Uiso  ? C
   C960       1.0     0.289486     0.358728     0.342124    Uiso  ? C
   C961       1.0     0.284333     0.375592     0.302915    Uiso  ? C
   C962       1.0     0.267615     0.348915     0.340852    Uiso  ? C
   H652       1.0     0.300276     0.354110     0.357650    Uiso  ? H
   C963       1.0     0.261558     0.366429     0.303885    Uiso  ? C
   H653       1.0     0.290816     0.385945     0.288544    Uiso  ? H
   C964       1.0     0.253937     0.351799     0.322087    Uiso  ? C
   H654       1.0     0.260785     0.338422     0.354961    Uiso  ? H
   H655       1.0     0.249756     0.369268     0.288632    Uiso  ? H
   C965       1.0     0.229126     0.342120     0.322810    Uiso  ? C
   H656       1.0     0.225202     0.335949     0.305828    Uiso  ? H
   H657       1.0     0.227269     0.327205     0.335102    Uiso  ? H
   N39        1.0     0.212285     0.359513     0.328983    Uiso  ? N
   C966       1.0     0.201482     0.373411     0.313728    Uiso  ? C
   C967       1.0     0.206561     0.366904     0.349642    Uiso  ? C
   C968       1.0     0.188821     0.389016     0.325031    Uiso  ? C
   H658       1.0     0.203584     0.371218     0.295455    Uiso  ? H
   H659       1.0     0.211077     0.357174     0.365929    Uiso  ? H
   H660       1.0     0.177530     0.401312     0.317959    Uiso  ? H
   N40        1.0     0.191601     0.385103     0.347649    Uiso  ? N
   C969       1.0     0.298238     0.507510     0.626361    Uiso  ? C
   C970       1.0     0.321005     0.503660     0.632338    Uiso  ? C
   C971       1.0     0.310867     0.479525     0.605528    Uiso  ? C
   N41        1.0     0.291703     0.492085     0.610063    Uiso  ? N
   H661       1.0     0.286124     0.518232     0.635244    Uiso  ? H
   H662       1.0     0.330500     0.511402     0.647169    Uiso  ? H
   H663       1.0     0.312461     0.466148     0.593135    Uiso  ? H
   N42        1.0     0.328477     0.486375     0.618205    Uiso  ? N
   C972       1.0     0.351114     0.476512     0.617477    Uiso  ? C
   H664       1.0     0.356024     0.472871     0.600275    Uiso  ? H
   H665       1.0     0.364835     0.489336     0.625574    Uiso  ? H
   C973       1.0     0.352971     0.455906     0.632173    Uiso  ? C
   C974       1.0     0.355016     0.433756     0.623197    Uiso  ? C
   C975       1.0     0.350768     0.458604     0.656225    Uiso  ? C
   C976       1.0     0.354554     0.414239     0.637446    Uiso  ? C
   H666       1.0     0.354569     0.430738     0.604341    Uiso  ? H
   C977       1.0     0.352195     0.438898     0.670943    Uiso  ? C
   H667       1.0     0.349637     0.475537     0.663490    Uiso  ? H
   C978       1.0     0.353579     0.417241     0.662047    Uiso  ? C
   H668       1.0     0.354374     0.396148     0.630480    Uiso  ? H
   H669       1.0     0.350200     0.440619     0.690005    Uiso  ? H
   C979       1.0     0.350184     0.397139     0.678148    Uiso  ? C
   C980       1.0     0.367518     0.380359     0.679813    Uiso  ? C
   C981       1.0     0.330741     0.395013     0.691892    Uiso  ? C
   C982       1.0     0.366982     0.362793     0.696947    Uiso  ? C
   H670       1.0     0.382778     0.382754     0.669326    Uiso  ? H
   C983       1.0     0.328387     0.376850     0.707168    Uiso  ? C
   H671       1.0     0.317226     0.408499     0.689078    Uiso  ? H
   C984       1.0     0.346868     0.361673     0.710816    Uiso  ? C
   H672       1.0     0.380835     0.351129     0.698617    Uiso  ? H
   H673       1.0     0.312158     0.374509     0.716283    Uiso  ? H
   C985       1.0     0.345860     0.343989     0.730516    Uiso  ? C
   H674       1.0     0.327680     0.335100     0.731191    Uiso  ? H
   H675       1.0     0.358859     0.329609     0.729389    Uiso  ? H
   N43        1.0     0.348409     0.354898     0.753274    Uiso  ? N
   C986       1.0     0.337575     0.347771     0.773092    Uiso  ? C
   C987       1.0     0.363984     0.370933     0.760277    Uiso  ? C
   C988       1.0     0.347335     0.359052     0.791037    Uiso  ? C
   H676       1.0     0.326249     0.333298     0.775768    Uiso  ? H
   H677       1.0     0.374473     0.380065     0.748901    Uiso  ? H
   H678       1.0     0.345118     0.356662     0.808198    Uiso  ? H
   N44        1.0     0.363318     0.373673     0.783390    Uiso  ? N
   C989       1.0     0.596008     0.577139     0.694481    Uiso  ? C
   C990       1.0     0.610072     0.574994     0.676051    Uiso  ? C
   C991       1.0     0.610234     0.543116     0.696474    Uiso  ? C
   N45        1.0     0.596632     0.557905     0.707910    Uiso  ? N
   H679       1.0     0.585316     0.592152     0.696410    Uiso  ? H
   H680       1.0     0.612864     0.588145     0.662404    Uiso  ? H
   H681       1.0     0.613558     0.525264     0.701663    Uiso  ? H
   N46        1.0     0.618857     0.553159     0.677549    Uiso  ? N
   C992       1.0     0.638211     0.544246     0.662850    Uiso  ? C
   H682       1.0     0.636592     0.524917     0.662615    Uiso  ? H
   H683       1.0     0.635884     0.549779     0.643947    Uiso  ? H
   C993       1.0     0.660589     0.553339     0.672116    Uiso  ? C
   C994       1.0     0.669926     0.574557     0.663158    Uiso  ? C
   C995       1.0     0.672637     0.541609     0.690115    Uiso  ? C
   C996       1.0     0.690022     0.583106     0.671894    Uiso  ? C
   H684       1.0     0.661541     0.584137     0.650668    Uiso  ? H
   C997       1.0     0.693326     0.550164     0.699368    Uiso  ? C
   H685       1.0     0.665362     0.525290     0.695760    Uiso  ? H
   C998       1.0     0.701271     0.572157     0.690795    Uiso  ? C
   H686       1.0     0.697332     0.597543     0.661117    Uiso  ? H
   H687       1.0     0.702127     0.540638     0.712718    Uiso  ? H
   C999       1.0     0.723995     0.582216     0.698769    Uiso  ? C
   C1000      1.0     0.743027     0.567192     0.704189    Uiso  ? C
   C1001      1.0     0.725912     0.606567     0.701025    Uiso  ? C
   C1002      1.0     0.764053     0.577205     0.710521    Uiso  ? C
   H688       1.0     0.742756     0.547887     0.702429    Uiso  ? H
   C1003      1.0     0.747110     0.615204     0.707862    Uiso  ? C
   H689       1.0     0.711637     0.617537     0.697425    Uiso  ? H
   C1004      1.0     0.766077     0.600856     0.712483    Uiso  ? C
   H690       1.0     0.777891     0.565627     0.716531    Uiso  ? H
   H691       1.0     0.748235     0.633425     0.710454    Uiso  ? H
   C1005      1.0     0.788270     0.611892     0.719632    Uiso  ? C
   H692       1.0     0.785523     0.625490     0.732754    Uiso  ? H
   H693       1.0     0.799170     0.598185     0.727828    Uiso  ? H
   N47        1.0     0.799644     0.620196     0.699763    Uiso  ? N
   C1006      1.0     0.798409     0.641541     0.691030    Uiso  ? C
   C1007      1.0     0.811049     0.607010     0.684740    Uiso  ? C
   C1008      1.0     0.809976     0.641299     0.669485    Uiso  ? C
   H694       1.0     0.788093     0.655403     0.697970    Uiso  ? H
   H695       1.0     0.811639     0.588416     0.686149    Uiso  ? H
   H696       1.0     0.812644     0.655444     0.657621    Uiso  ? H
   N48        1.0     0.817351     0.619773     0.666054    Uiso  ? N
   C1009      1.0     0.519190     0.711544     0.819167    Uiso  ? C
   C1010      1.0     0.527164     0.733370     0.818390    Uiso  ? C
   C1011      1.0     0.523044     0.722978     0.853913    Uiso  ? C
   N49        1.0     0.516629     0.704883     0.841417    Uiso  ? N
   H697       1.0     0.516372     0.699787     0.804647    Uiso  ? H
   H698       1.0     0.529496     0.743375     0.802740    Uiso  ? H
   H699       1.0     0.523782     0.723884     0.871748    Uiso  ? H
   N50        1.0     0.530062     0.740892     0.839705    Uiso  ? N
   C1012      1.0     0.539672     0.763457     0.846665    Uiso  ? C
   H700       1.0     0.539387     0.773503     0.831227    Uiso  ? H
   H701       1.0     0.530074     0.770301     0.862550    Uiso  ? H
   C1013      1.0     0.563738     0.756970     0.855478    Uiso  ? C
   C1014      1.0     0.567635     0.755836     0.878981    Uiso  ? C
   C1015      1.0     0.581014     0.751091     0.839825    Uiso  ? C
   C1016      1.0     0.588629     0.748034     0.887782    Uiso  ? C
   H702       1.0     0.553305     0.759401     0.890393    Uiso  ? H
   C1017      1.0     0.602389     0.742443     0.848586    Uiso  ? C
   H703       1.0     0.577818     0.750792     0.822026    Uiso  ? H
   C1018      1.0     0.606067     0.740179     0.872417    Uiso  ? C
   H704       1.0     0.589485     0.748088     0.105933    Uiso  ? H
   H705       1.0     0.616096     0.735387     0.836763    Uiso  ? H
   C1019      1.0     0.627903     0.730621     0.880804    Uiso  ? C
   C1020      1.0     0.634575     0.709117     0.871068    Uiso  ? C
   C1021      1.0     0.640920     0.740542     0.897815    Uiso  ? C
   C1022      1.0     0.656461     0.699866     0.876252    Uiso  ? C
   H706       1.0     0.622386     0.699361     0.859478    Uiso  ? H
   C1023      1.0     0.660872     0.730583     0.105015    Uiso  ? C
   H707       1.0     0.633384     0.757914     0.103681    Uiso  ? H
   C1024      1.0     0.670039     0.710448     0.892968    Uiso  ? C
   H708       1.0     0.662399     0.683566     0.868636    Uiso  ? H
   H709       1.0     0.669861     0.738652     0.119790    Uiso  ? H
   C1025      1.0     0.693508     0.700839     0.100000    Uiso  ? C
   H710       1.0     0.693918     0.701757     0.119012    Uiso  ? H
   H711       1.0     0.694947     0.681358     0.894576    Uiso  ? H
   N51        1.0     0.712562     0.713093     0.890160    Uiso  ? N
   C1026      1.0     0.725156     0.707763     0.871244    Uiso  ? C
   C1027      1.0     0.723058     0.731608     0.899605    Uiso  ? C
   C1028      1.0     0.744042     0.722277     0.871002    Uiso  ? C
   H712       1.0     0.722153     0.693195     0.859371    Uiso  ? H
   H713       1.0     0.718600     0.739058     0.115749    Uiso  ? H
   H714       1.0     0.757391     0.722036     0.860111    Uiso  ? H
   N52        1.0     0.742178     0.737984     0.887905    Uiso  ? N
   C1029      1.0     0.721430     0.475698     0.841388    Uiso  ? C
   C1030      1.0     0.744313     0.467480     0.842518    Uiso  ? C
   C1031      1.0     0.727520     0.456239     0.873030    Uiso  ? C
   N53        1.0     0.710885     0.467736     0.860772    Uiso  ? N
   H715       1.0     0.713075     0.484777     0.827346    Uiso  ? H
   H716       1.0     0.756235     0.469763     0.827735    Uiso  ? H
   H717       1.0     0.725116     0.448439     0.891015    Uiso  ? H
   N54        1.0     0.748515     0.456274     0.862629    Uiso  ? N
   C1032      1.0     0.768922     0.441223     0.868983    Uiso  ? C
   H718       1.0     0.785896     0.446662     0.860408    Uiso  ? H
   H719       1.0     0.772284     0.442598     0.887349    Uiso  ? H
   C1033      1.0     0.764306     0.416808     0.860954    Uiso  ? C
   C1034      1.0     0.765675     0.410413     0.837724    Uiso  ? C
   C1035      1.0     0.754442     0.402131     0.877030    Uiso  ? C
   C1036      1.0     0.760258     0.388059     0.831122    Uiso  ? C
   H720       1.0     0.771428     0.421305     0.824817    Uiso  ? H
   C1037      1.0     0.746304     0.380809     0.869366    Uiso  ? C
   H721       1.0     0.749626     0.407162     0.894050    Uiso  ? H
   C1038      1.0     0.749322     0.372835     0.846189    Uiso  ? C
   H722       1.0     0.762893     0.382398     0.813422    Uiso  ? H
   H723       1.0     0.740354     0.368270     0.881642    Uiso  ? H
   C1039      1.0     0.739448     0.350116     0.839307    Uiso  ? C
   C1040      1.0     0.741377     0.330453     0.854104    Uiso  ? C
   C1041      1.0     0.727008     0.348538     0.818545    Uiso  ? C
   C1042      1.0     0.730561     0.310000     0.848795    Uiso  ? C
   H724       1.0     0.754404     0.330285     0.868163    Uiso  ? H
   C1043      1.0     0.715755     0.327864     0.813981    Uiso  ? C
   H725       1.0     0.724707     0.365416     0.808790    Uiso  ? H
   C1044      1.0     0.717598     0.308706     0.828920    Uiso  ? C
   H726       1.0     0.735743     0.294802     0.858173    Uiso  ? H
   H727       1.0     0.706231     0.326932     0.799096    Uiso  ? H
   C1045      1.0     0.709882     0.285418     0.819848    Uiso  ? C
   H728       1.0     0.700151     0.276731     0.833731    Uiso  ? H
   H729       1.0     0.698859     0.288624     0.804576    Uiso  ? H
   N55        1.0     0.729683     0.271373     0.813232    Uiso  ? N
   C1046      1.0     0.739776     0.270728     0.792391    Uiso  ? C
   C1047      1.0     0.742092     0.256496     0.826251    Uiso  ? C
   C1048      1.0     0.759017     0.256674     0.793353    Uiso  ? C
   H730       1.0     0.735248     0.281016     0.777844    Uiso  ? H
   H731       1.0     0.737926     0.253818     0.844268    Uiso  ? H
   H732       1.0     0.768158     0.249490     0.777585    Uiso  ? H
   N56        1.0     0.758656     0.246199     0.814297    Uiso  ? N
   C1049      1.0     0.226979     0.736329     0.205931    Uiso  ? C
   C1050      1.0     0.244462     0.720146     0.208484    Uiso  ? C
   C1051      1.0     0.251993     0.741662     0.179536    Uiso  ? C
   N57        1.0     0.230729     0.748602     0.186476    Uiso  ? N
   H733       1.0     0.211005     0.735969     0.215871    Uiso  ? H
   H734       1.0     0.246672     0.707337     0.222332    Uiso  ? H
   H735       1.0     0.262752     0.750490     0.165229    Uiso  ? H
   N58        1.0     0.260809     0.724509     0.191519    Uiso  ? N
   C1052      1.0     0.280801     0.710489     0.185798    Uiso  ? C
   H736       1.0     0.289369     0.718574     0.171573    Uiso  ? H
   H737       1.0     0.293812     0.711618     0.199502    Uiso  ? H
   C1053      1.0     0.273078     0.686280     0.181375    Uiso  ? C
   C1054      1.0     0.262831     0.680832     0.159836    Uiso  ? C
   C1055      1.0     0.276923     0.669458     0.197048    Uiso  ? C
   C1056      1.0     0.254760     0.658673     0.155262    Uiso  ? C
   H738       1.0     0.257461     0.693958     0.146807    Uiso  ? H
   C1057      1.0     0.269190     0.646997     0.193362    Uiso  ? C
   H739       1.0     0.286010     0.672675     0.213438    Uiso  ? H
   C1058      1.0     0.259597     0.641337     0.171213    Uiso  ? C
   H740       1.0     0.248336     0.654438     0.138497    Uiso  ? H
   H741       1.0     0.270423     0.634150     0.207548    Uiso  ? H
   C1059      1.0     0.252810     0.616936     0.167050    Uiso  ? C
   C1060      1.0     0.231961     0.610037     0.155551    Uiso  ? C
   C1061      1.0     0.266699     0.598969     0.175123    Uiso  ? C
   C1062      1.0     0.225795     0.585885     0.152547    Uiso  ? C
   H742       1.0     0.220403     0.623223     0.149103    Uiso  ? H
   C1063      1.0     0.262017     0.576230     0.170400    Uiso  ? C
   H743       1.0     0.282060     0.603573     0.184900    Uiso  ? H
   C1064      1.0     0.241704     0.569115     0.159131    Uiso  ? C
   H744       1.0     0.209590     0.579938     0.143984    Uiso  ? H
   H745       1.0     0.274702     0.562379     0.175140    Uiso  ? H
   C1065      1.0     0.238607     0.543851     0.154637    Uiso  ? C
   H746       1.0     0.242060     0.534301     0.170647    Uiso  ? H
   H747       1.0     0.220239     0.542907     0.148604    Uiso  ? H
   N59        1.0     0.254990     0.534410     0.136347    Uiso  ? N
   C1066      1.0     0.250370     0.531554     0.113534    Uiso  ? C
   C1067      1.0     0.277881     0.531047     0.138038    Uiso  ? C
   C1068      1.0     0.269874     0.526113     0.102461    Uiso  ? C
   H748       1.0     0.232940     0.533426     0.105272    Uiso  ? H
   H749       1.0     0.287306     0.529552     0.154118    Uiso  ? H
   H750       1.0     0.272624     0.523839     0.884690    Uiso  ? H
   N60        1.0     0.287531     0.526336     0.118138    Uiso  ? N
   C1069      1.0     0.255090     0.266151     0.134127    Uiso  ? C
   C1070      1.0     0.272378     0.282227     0.129232    Uiso  ? C
   C1071      1.0     0.266721     0.260035     0.899776    Uiso  ? C
   N61        1.0     0.251007     0.253147     0.114974    Uiso  ? N
   H751       1.0     0.248434     0.263142     0.149557    Uiso  ? H
   H752       1.0     0.279282     0.293736     0.142495    Uiso  ? H
   H753       1.0     0.268281     0.253145     0.883299    Uiso  ? H
   N62        1.0     0.279943     0.278391     0.107520    Uiso  ? N
   C1072      1.0     0.298194     0.289670     0.895425    Uiso  ? C
   H754       1.0     0.295657     0.290409     0.876685    Uiso  ? H
   H755       1.0     0.298861     0.309845     0.100456    Uiso  ? H
   C1073      1.0     0.320639     0.278838     0.100222    Uiso  ? C
   C1074      1.0     0.331359     0.263202     0.883951    Uiso  ? C
   C1075      1.0     0.332419     0.285320     0.120285    Uiso  ? C
   C1076      1.0     0.352460     0.252950     0.887979    Uiso  ? C
   H756       1.0     0.320108     0.257041     0.868747    Uiso  ? H
   C1077      1.0     0.354393     0.276343     0.123912    Uiso  ? C
   H757       1.0     0.325107     0.297284     0.132359    Uiso  ? H
   C1078      1.0     0.364167     0.259516     0.108699    Uiso  ? C
   H758       1.0     0.359058     0.239341     0.876172    Uiso  ? H
   H759       1.0     0.363541     0.283941     0.137319    Uiso  ? H
   C1079      1.0     0.388099     0.248962     0.112542    Uiso  ? C
   C1080      1.0     0.394371     0.242736     0.134942    Uiso  ? C
   C1081      1.0     0.404543     0.246908     0.894128    Uiso  ? C
   C1082      1.0     0.416960     0.237559     0.139955    Uiso  ? C
   H760       1.0     0.381063     0.244577     0.148760    Uiso  ? H
   C1083      1.0     0.426660     0.238287     0.899211    Uiso  ? C
   H761       1.0     0.398888     0.251093     0.877542    Uiso  ? H
   C1084      1.0     0.433615     0.235669     0.122059    Uiso  ? C
   H762       1.0     0.422156     0.235566     0.157763    Uiso  ? H
   H763       1.0     0.439114     0.236173     0.884022    Uiso  ? H
   C1085      1.0     0.458709     0.234223     0.128790    Uiso  ? C
   H764       1.0     0.463013     0.219912     0.141364    Uiso  ? H
   H765       1.0     0.469360     0.229355     0.113321    Uiso  ? H
   N63        1.0     0.466240     0.256341     0.138983    Uiso  ? N
   C1086      1.0     0.473752     0.259984     0.160302    Uiso  ? C
   C1087      1.0     0.470960     0.275573     0.126052    Uiso  ? C
   C1088      1.0     0.481785     0.281863     0.161200    Uiso  ? C
   H766       1.0     0.472570     0.248303     0.174162    Uiso  ? H
   H767       1.0     0.466654     0.277918     0.108464    Uiso  ? H
   H768       1.0     0.487374     0.292015     0.176586    Uiso  ? H
   N64        1.0     0.479748     0.290976     0.139736    Uiso  ? N
   C1089      1.0     0.584882     0.194319     0.687376    Uiso  ? C
   C1090      1.0     0.597014     0.196269     0.708000    Uiso  ? C
   C1091      1.0     0.612723     0.169059     0.687152    Uiso  ? C
   N65        1.0     0.594496     0.176534     0.674501    Uiso  ? N
   H769       1.0     0.570306     0.205582     0.682403    Uiso  ? H
   H770       1.0     0.594484     0.209341     0.721508    Uiso  ? H
   H771       1.0     0.623608     0.155046     0.681751    Uiso  ? H
   N66        1.0     0.614729     0.180276     0.706476    Uiso  ? N
   C1092      1.0     0.632854     0.177512     0.725082    Uiso  ? C
   H772       1.0     0.639230     0.194966     0.730433    Uiso  ? H
   H773       1.0     0.624041     0.167743     0.740328    Uiso  ? H
   C1093      1.0     0.652156     0.163482     0.715765    Uiso  ? C
   C1094      1.0     0.667422     0.173092     0.699323    Uiso  ? C
   C1095      1.0     0.655797     0.140521     0.721978    Uiso  ? C
   C1096      1.0     0.686220     0.160646     0.689889    Uiso  ? C
   H774       1.0     0.666886     0.190930     0.694854    Uiso  ? H
   C1097      1.0     0.673816     0.127441     0.712084    Uiso  ? C
   H775       1.0     0.644007     0.131450     0.735431    Uiso  ? H
   C1098      1.0     0.689671     0.137800     0.696597    Uiso  ? C
   H776       1.0     0.697316     0.170384     0.677537    Uiso  ? H
   H777       1.0     0.674386     0.108950     0.715829    Uiso  ? H
   C1099      1.0     0.708919     0.124029     0.688243    Uiso  ? C
   C1100      1.0     0.730718     0.134123     0.687775    Uiso  ? C
   C1101      1.0     0.705011     0.895746     0.683278    Uiso  ? C
   C1102      1.0     0.749226     0.121593     0.679766    Uiso  ? C
   H778       1.0     0.732664     0.151646     0.693268    Uiso  ? H
   C1103      1.0     0.722966     0.882898     0.674536    Uiso  ? C
   H779       1.0     0.688282     0.888817     0.682381    Uiso  ? H
   C1104      1.0     0.745012     0.892935     0.672598    Uiso  ? C
   H780       1.0     0.764943     0.130234     0.678884    Uiso  ? H
   H781       1.0     0.720271     0.864653     0.670977    Uiso  ? H
   C1105      1.0     0.764636     0.877992     0.665234    Uiso  ? C
   H782       1.0     0.758755     0.864970     0.651743    Uiso  ? H
   H783       1.0     0.777815     0.887585     0.655031    Uiso  ? H
   N67        1.0     0.774417     0.865193     0.683580    Uiso  ? N
   C1106      1.0     0.772563     0.841879     0.685892    Uiso  ? C
   C1107      1.0     0.786973     0.873095     0.701706    Uiso  ? C
   C1108      1.0     0.783230     0.836923     0.706633    Uiso  ? C
   H784       1.0     0.763243     0.829275     0.676092    Uiso  ? H
   H785       1.0     0.791271     0.890724     0.703746    Uiso  ? H
   H786       1.0     0.781816     0.820453     0.716181    Uiso  ? H
   N68        1.0     0.792761     0.855540     0.715674    Uiso  ? N
   C1109      1.0     0.302668     0.171991     0.600909    Uiso  ? C
   C1110      1.0     0.282797     0.167478     0.612899    Uiso  ? C
   C1111      1.0     0.297427     0.136089     0.602505    Uiso  ? C
   N69        1.0     0.312920     0.151978     0.594900    Uiso  ? N
   H787       1.0     0.306981     0.188816     0.594545    Uiso  ? H
   H788       1.0     0.271725     0.181496     0.621629    Uiso  ? H
   H789       1.0     0.298559     0.117853     0.599250    Uiso  ? H
   N70        1.0     0.279608     0.145383     0.613963    Uiso  ? N
   C1112      1.0     0.262127     0.133311     0.627455    Uiso  ? C
   H790       1.0     0.248201     0.145883     0.632442    Uiso  ? H
   H791       1.0     0.254550     0.117980     0.618102    Uiso  ? H
   C1113      1.0     0.273631     0.126005     0.649445    Uiso  ? C
   C1114      1.0     0.277380     0.141992     0.667017    Uiso  ? C
   C1115      1.0     0.285118     0.104491     0.650318    Uiso  ? C
   C1116      1.0     0.291163     0.135974     0.686065    Uiso  ? C
   H792       1.0     0.269848     0.158311     0.667928    Uiso  ? H
   C1117      1.0     0.295524     0.892241     0.670282    Uiso  ? C
   H793       1.0     0.281541     0.886774     0.636625    Uiso  ? H
   C1118      1.0     0.300468     0.113171     0.688341    Uiso  ? C
   H794       1.0     0.293962     0.148996     0.699553    Uiso  ? H
   H795       1.0     0.303341     0.875837     0.670258    Uiso  ? H
   C1119      1.0     0.311488     0.107354     0.710989    Uiso  ? C
   C1120      1.0     0.324475     0.122907     0.723781    Uiso  ? C
   C1121      1.0     0.305184     0.881209     0.721294    Uiso  ? C
   C1122      1.0     0.333699     0.115547     0.744887    Uiso  ? C
   H796       1.0     0.328500     0.139677     0.716811    Uiso  ? H
   C1123      1.0     0.316178     0.873304     0.741455    Uiso  ? C
   H797       1.0     0.296031     0.869027     0.711522    Uiso  ? H
   C1124      1.0     0.329148     0.888465     0.754061    Uiso  ? C
   H798       1.0     0.345289     0.128032     0.753086    Uiso  ? H
   H799       1.0     0.315516     0.856128     0.745191    Uiso  ? H
   C1125      1.0     0.340857     0.881492     0.776943    Uiso  ? C
   H800       1.0     0.356183     0.870629     0.772536    Uiso  ? H
   H801       1.0     0.346647     0.102373     0.786226    Uiso  ? H
   N71        1.0     0.324720     0.867750     0.791763    Uiso  ? N
   C1126      1.0     0.321526     0.844602     0.793092    Uiso  ? C
   C1127      1.0     0.306033     0.877093     0.802179    Uiso  ? C
   C1128      1.0     0.300894     0.840922     0.804687    Uiso  ? C
   H802       1.0     0.330884     0.831570     0.785099    Uiso  ? H
   H803       1.0     0.302242     0.894546     0.802107    Uiso  ? H
   H804       1.0     0.292575     0.823693     0.805189    Uiso  ? H
   N72        1.0     0.291572     0.860943     0.811065    Uiso  ? N
   C1129      1.0     0.196832     0.132580     0.306986    Uiso  ? C
   C1130      1.0     0.215968     0.137062     0.319839    Uiso  ? C
   C1131      1.0     0.220230     0.151683     0.286609    Uiso  ? C
   N73        1.0     0.199356     0.140879     0.285006    Uiso  ? N
   H805       1.0     0.181439     0.123761     0.313450    Uiso  ? H
   H806       1.0     0.218140     0.129794     0.336814    Uiso  ? H
   H807       1.0     0.229107     0.162216     0.273175    Uiso  ? H
   N74        1.0     0.230860     0.149871     0.307335    Uiso  ? N
   C1132      1.0     0.254424     0.154649     0.313970    Uiso  ? C
   H808       1.0     0.259513     0.171511     0.304366    Uiso  ? H
   H809       1.0     0.256232     0.158759     0.332056    Uiso  ? H
   C1133      1.0     0.271354     0.135954     0.307253    Uiso  ? C
   C1134      1.0     0.268143     0.112967     0.313709    Uiso  ? C
   C1135      1.0     0.291275     0.142147     0.293928    Uiso  ? C
   C1136      1.0     0.283308     0.890589     0.307202    Uiso  ? C
   H810       1.0     0.253725     0.107253     0.324151    Uiso  ? H
   C1137      1.0     0.306879     0.125072     0.286230    Uiso  ? C
   H811       1.0     0.294016     0.158359     0.286839    Uiso  ? H
   C1138      1.0     0.303044     0.896916     0.293574    Uiso  ? C
   H812       1.0     0.281834     0.873961     0.315224    Uiso  ? H
   H813       1.0     0.320085     0.129456     0.274371    Uiso  ? H
   C1139      1.0     0.319580     0.879402     0.284683    Uiso  ? C
   C1140      1.0     0.343021     0.884596     0.282147    Uiso  ? C
   C1141      1.0     0.312498     0.856380     0.280861    Uiso  ? C
   C1142      1.0     0.357993     0.868168     0.275603    Uiso  ? C
   H814       1.0     0.350312     0.107087     0.284552    Uiso  ? H
   C1143      1.0     0.326750     0.839843     0.275693    Uiso  ? C
   H815       1.0     0.293657     0.850578     0.282133    Uiso  ? H
   C1144      1.0     0.350645     0.845362     0.272883    Uiso  ? C
   H816       1.0     0.375596     0.872201     0.273891    Uiso  ? H
   H817       1.0     0.322168     0.821887     0.274154    Uiso  ? H
   C1145      1.0     0.367853     0.825796     0.272252    Uiso  ? C
   H818       1.0     0.360947     0.810779     0.262852    Uiso  ? H
   H819       1.0     0.383719     0.832421     0.262609    Uiso  ? H
   N75        1.0     0.373660     0.821118     0.296062    Uiso  ? N
   C1146      1.0     0.367239     0.803209     0.309687    Uiso  ? C
   C1147      1.0     0.389345     0.833665     0.308572    Uiso  ? C
   C1148      1.0     0.379124     0.804405     0.330470    Uiso  ? C
   H820       1.0     0.356077     0.789897     0.305084    Uiso  ? H
   H821       1.0     0.398919     0.849036     0.301433    Uiso  ? H
   H822       1.0     0.378000     0.792991     0.344246    Uiso  ? H
   N76        1.0     0.393438     0.824164     0.329233    Uiso  ? N
   C1149      1.0     0.678991     0.123391     0.178998    Uiso  ? C
   C1150      1.0     0.661409     0.128437     0.193772    Uiso  ? C
   C1151      1.0     0.692607     0.142354     0.206618    Uiso  ? C
   N77        1.0     0.697713     0.131385     0.187068    Uiso  ? N
   H823       1.0     0.677026     0.115857     0.162280    Uiso  ? H
   H824       1.0     0.643034     0.124343     0.192718    Uiso  ? H
   H825       1.0     0.704308     0.151646     0.218192    Uiso  ? H
   N78        1.0     0.670073     0.140813     0.211189    Uiso  ? N
   C1152      1.0     0.658185     0.149933     0.231630    Uiso  ? C
   H826       1.0     0.663317     0.167751     0.233739    Uiso  ? H
   H827       1.0     0.638989     0.150927     0.228204    Uiso  ? H
   C1153      1.0     0.664653     0.135980     0.252177    Uiso  ? C
   C1154      1.0     0.684079     0.141248     0.264719    Uiso  ? C
   C1155      1.0     0.651500     0.116793     0.258755    Uiso  ? C
   C1156      1.0     0.690959     0.127097     0.283474    Uiso  ? C
   H828       1.0     0.694010     0.157330     0.260783    Uiso  ? H
   C1157      1.0     0.656415     0.103932     0.277895    Uiso  ? C
   H829       1.0     0.634257     0.115893     0.251963    Uiso  ? H
   C1158      1.0     0.677050     0.107379     0.289602    Uiso  ? C
   H830       1.0     0.707568     0.130937     0.292009    Uiso  ? H
   H831       1.0     0.643061     0.885890     0.282061    Uiso  ? H
   C1159      1.0     0.684708     0.886142     0.307607    Uiso  ? C
   C1160      1.0     0.682743     0.861384     0.305298    Uiso  ? C
   C1161      1.0     0.695240     0.894467     0.328210    Uiso  ? C
   C1162      1.0     0.693642     0.846587     0.319840    Uiso  ? C
   H832       1.0     0.672477     0.852851     0.292306    Uiso  ? H
   C1163      1.0     0.704248     0.879198     0.344445    Uiso  ? C
   H833       1.0     0.696207     0.117588     0.332502    Uiso  ? H
   C1164      1.0     0.704421     0.854920     0.339863    Uiso  ? C
   H834       1.0     0.692910     0.827663     0.317640    Uiso  ? H
   H835       1.0     0.713624     0.886800     0.359348    Uiso  ? H
   C1165      1.0     0.717860     0.838262     0.356038    Uiso  ? C
   H836       1.0     0.715239     0.820115     0.349622    Uiso  ? H
   H837       1.0     0.736335     0.840953     0.357182    Uiso  ? H
   N79        1.0     0.707406     0.839196     0.380037    Uiso  ? N
   C1166      1.0     0.719134     0.837087     0.399557    Uiso  ? C
   C1167      1.0     0.686151     0.846656     0.385548    Uiso  ? C
   C1168      1.0     0.704652     0.842728     0.417734    Uiso  ? C
   H838       1.0     0.737344     0.831472     0.400418    Uiso  ? H
   H839       1.0     0.673949     0.853037     0.372532    Uiso  ? H
   H840       1.0     0.708101     0.839330     0.436252    Uiso  ? H
   N80        1.0     0.683440     0.848394     0.408781    Uiso  ? N
   C1169      1.0     0.113241     0.441476     0.727588    Uiso  ? C
   C1170      1.0     0.110815     0.427794     0.747464    Uiso  ? C
   C1171      1.0     0.897617     0.407136     0.717156    Uiso  ? C
   N81        1.0     0.108675     0.427949     0.708901    Uiso  ? N
   H841       1.0     0.115659     0.459599     0.728611    Uiso  ? H
   H842       1.0     0.113279     0.431866     0.765248    Uiso  ? H
   H843       1.0     0.888838     0.393218     0.707781    Uiso  ? H
   N82        1.0     0.104571     0.406544     0.740437    Uiso  ? N
   C1172      1.0     0.890126     0.389503     0.756251    Uiso  ? C
   H844       1.0     0.104902     0.390999     0.772205    Uiso  ? H
   H845       1.0     0.871233     0.392654     0.761154    Uiso  ? H
   C1173      1.0     0.893998     0.365739     0.745785    Uiso  ? C
   C1174      1.0     0.877394     0.354531     0.732651    Uiso  ? C
   C1175      1.0     0.120538     0.356025     0.749709    Uiso  ? C
   C1176      1.0     0.882857     0.334201     0.720625    Uiso  ? C
   H846       1.0     0.861464     0.363095     0.729253    Uiso  ? H
   C1177      1.0     0.124741     0.333167     0.741270    Uiso  ? C
   H847       1.0     0.133940     0.364885     0.760051    Uiso  ? H
   C1178      1.0     0.109216     0.324121     0.724138    Uiso  ? C
   H848       1.0     0.871085     0.327094     0.708209    Uiso  ? H
   H849       1.0     0.141816     0.324603     0.743740    Uiso  ? H
   C1179      1.0     0.114374     0.303467     0.711484    Uiso  ? C
   C1180      1.0     0.136960     0.300994     0.701515    Uiso  ? C
   C1181      1.0     0.894543     0.284730     0.710852    Uiso  ? C
   C1182      1.0     0.143886     0.280371     0.690871    Uiso  ? C
   H850       1.0     0.150484     0.315398     0.702906    Uiso  ? H
   C1183      1.0     0.106035     0.264260     0.699107    Uiso  ? C
   H851       1.0     0.880015     0.283875     0.720973    Uiso  ? H
   C1184      1.0     0.127471     0.262481     0.687423    Uiso  ? C
   H852       1.0     0.159675     0.279730     0.680933    Uiso  ? H
   H853       1.0     0.888866     0.249238     0.700490    Uiso  ? H
   C1185      1.0     0.134254     0.239761     0.676988    Uiso  ? C
   H854       1.0     0.118460     0.230608     0.671730    Uiso  ? H
   H855       1.0     0.145080     0.243497     0.661296    Uiso  ? H
   N83        1.0     0.146163     0.224835     0.693566    Uiso  ? N
   C1186      1.0     0.169215     0.221796     0.695554    Uiso  ? C
   C1187      1.0     0.136403     0.217306     0.713524    Uiso  ? C
   C1188      1.0     0.172851     0.210561     0.716024    Uiso  ? C
   H856       1.0     0.181126     0.232361     0.684562    Uiso  ? H
   H857       1.0     0.118388     0.219294     0.718569    Uiso  ? H
   H858       1.0     0.189632     0.205860     0.723149    Uiso  ? H
   N84        1.0     0.152676     0.207209     0.726839    Uiso  ? N
   C1189      1.0     0.226460     0.683566     0.572045    Uiso  ? C
   C1190      1.0     0.229923     0.703737     0.583704    Uiso  ? C
   C1191      1.0     0.193077     0.701676     0.575635    Uiso  ? C
   N85        1.0     0.203225     0.681685     0.569048    Uiso  ? N
   H859       1.0     0.239166     0.670718     0.567916    Uiso  ? H
   H860       1.0     0.246665     0.709445     0.590417    Uiso  ? H
   H861       1.0     0.174273     0.703619     0.577859    Uiso  ? H
   N86        1.0     0.209557     0.715523     0.584412    Uiso  ? N
   C1192      1.0     0.205315     0.735592     0.599628    Uiso  ? C
   H862       1.0     0.220848     0.747843     0.599489    Uiso  ? H
   H863       1.0     0.188950     0.745800     0.593715    Uiso  ? H
   C1193      1.0     0.201056     0.728258     0.623665    Uiso  ? C
   C1194      1.0     0.179194     0.719644     0.629984    Uiso  ? C
   C1195      1.0     0.219031     0.730265     0.641086    Uiso  ? C
   C1196      1.0     0.175604     0.711119     0.652363    Uiso  ? C
   H864       1.0     0.165806     0.717073     0.618136    Uiso  ? H
   C1197      1.0     0.214019     0.723523     0.663966    Uiso  ? C
   H865       1.0     0.235428     0.737429     0.635891    Uiso  ? H
   C1198      1.0     0.193160     0.712681     0.669889    Uiso  ? C
   H866       1.0     0.158108     0.705038     0.656030    Uiso  ? H
   H867       1.0     0.228209     0.722222     0.676167    Uiso  ? H
   C1199      1.0     0.190102     0.701975     0.692745    Uiso  ? C
   C1200      1.0     0.182423     0.679272     0.694883    Uiso  ? C
   C1201      1.0     0.192932     0.714319     0.713608    Uiso  ? C
   C1202      1.0     0.177513     0.669914     0.717524    Uiso  ? C
   H868       1.0     0.180095     0.669186     0.680032    Uiso  ? H
   C1203      1.0     0.189235     0.704562     0.735253    Uiso  ? C
   H869       1.0     0.198979     0.732785     0.713082    Uiso  ? H
   C1204      1.0     0.179689     0.682722     0.738178    Uiso  ? C
   H870       1.0     0.168852     0.653543     0.717066    Uiso  ? H
   H871       1.0     0.192918     0.714826     0.750549    Uiso  ? H
   C1205      1.0     0.174880     0.672171     0.762403    Uiso  ? C
   H872       1.0     0.169580     0.653530     0.760591    Uiso  ? H
   H873       1.0     0.190385     0.673691     0.772745    Uiso  ? H
   N87        1.0     0.156013     0.685519     0.774332    Uiso  ? N
   C1206      1.0     0.134143     0.678515     0.777092    Uiso  ? C
   C1207      1.0     0.157111     0.706386     0.784926    Uiso  ? C
   C1208      1.0     0.122860     0.695040     0.790048    Uiso  ? C
   H874       1.0     0.126504     0.660811     0.773820    Uiso  ? H
   H875       1.0     0.173086     0.716229     0.786938    Uiso  ? H
   H876       1.0     0.104791     0.695550     0.795782    Uiso  ? H
   N88        1.0     0.136917     0.712791     0.793715    Uiso  ? N
   C1209      1.0     0.893044     0.565776     0.285042    Uiso  ? C
   C1210      1.0     0.104501     0.576799     0.265182    Uiso  ? C
   C1211      1.0     0.115865     0.595731     0.295191    Uiso  ? C
   N89        1.0     0.104595     0.577286     0.303799    Uiso  ? N
   H877       1.0     0.884210     0.549874     0.284972    Uiso  ? H
   H878       1.0     0.894588     0.572003     0.248890    Uiso  ? H
   H879       1.0     0.120437     0.610189     0.306083    Uiso  ? H
   N90        1.0     0.116418     0.595333     0.272041    Uiso  ? N
   C1212      1.0     0.124585     0.613571     0.257235    Uiso  ? C
   H880       1.0     0.143920     0.612525     0.258170    Uiso  ? H
   H881       1.0     0.120412     0.610267     0.239378    Uiso  ? H
   C1213      1.0     0.115674     0.636450     0.265732    Uiso  ? C
   C1214      1.0     0.887737     0.642652     0.261501    Uiso  ? C
   C1215      1.0     0.128843     0.650607     0.280557    Uiso  ? C
   C1216      1.0     0.877463     0.662331     0.271789    Uiso  ? C
   H882       1.0     0.879532     0.633199     0.246871    Uiso  ? H
   C1217      1.0     0.118680     0.669707     0.291112    Uiso  ? C
   H883       1.0     0.146486     0.646459     0.286435    Uiso  ? H
   C1218      1.0     0.891353     0.675859     0.287058    Uiso  ? C
   H884       1.0     0.859837     0.667722     0.267637    Uiso  ? H
   H885       1.0     0.128762     0.678606     0.305014    Uiso  ? H
   C1219      1.0     0.881496     0.696912     0.299314    Uiso  ? C
   C1220      1.0     0.859673     0.697088     0.309183    Uiso  ? C
   C1221      1.0     0.893741     0.718600     0.298811    Uiso  ? C
   C1222      1.0     0.851286     0.715925     0.321312    Uiso  ? C
   H886       1.0     0.849547     0.682667     0.305987    Uiso  ? H
   C1223      1.0     0.885372     0.737142     0.309804    Uiso  ? C
   H887       1.0     0.115481     0.720172     0.290528    Uiso  ? H
   C1224      1.0     0.863240     0.736514     0.320505    Uiso  ? C
   H888       1.0     0.834727     0.716866     0.326243    Uiso  ? H
   H889       1.0     0.893882     0.754059     0.307340    Uiso  ? H
   C1225      1.0     0.853197     0.758449     0.327664    Uiso  ? C
   H890       1.0     0.841657     0.756709     0.343566    Uiso  ? H
   H891       1.0     0.866367     0.770604     0.333811    Uiso  ? H
   N91        1.0     0.840111     0.769598     0.309800    Uiso  ? N
   C1226      1.0     0.817658     0.767529     0.304995    Uiso  ? C
   C1227      1.0     0.849680     0.783343     0.294154    Uiso  ? C
   C1228      1.0     0.814880     0.781676     0.285584    Uiso  ? C
   H892       1.0     0.804212     0.757860     0.314303    Uiso  ? H
   H893       1.0     0.866936     0.787433     0.293971    Uiso  ? H
   H894       1.0     0.799199     0.781219     0.275857    Uiso  ? H
   N92        1.0     0.835327     0.789671     0.278173    Uiso  ? N
   C1229      1.0     0.796324     0.307805     0.449917    Uiso  ? C
   C1230      1.0     0.789887     0.290139     0.435470    Uiso  ? C
   C1231      1.0     0.802980     0.319243     0.415697    Uiso  ? C
   N93        1.0     0.805266     0.325495     0.437592    Uiso  ? N
   H895       1.0     0.797278     0.308219     0.468658    Uiso  ? H
   H896       1.0     0.782764     0.274063     0.440070    Uiso  ? H
   H897       1.0     0.808901     0.329300     0.402130    Uiso  ? H
   N94        1.0     0.793784     0.297958     0.413093    Uiso  ? N
   C1232      1.0     0.784679     0.286831     0.392173    Uiso  ? C
   H898       1.0     0.788567     0.268255     0.394242    Uiso  ? H
   H899       1.0     0.766015     0.288086     0.391048    Uiso  ? H
   C1233      1.0     0.797173     0.294124     0.369410    Uiso  ? C
   C1234      1.0     0.820922     0.292274     0.367600    Uiso  ? C
   C1235      1.0     0.785237     0.303255     0.351218    Uiso  ? C
   C1236      1.0     0.831455     0.299518     0.348243    Uiso  ? C
   H900       1.0     0.831060     0.289111     0.382725    Uiso  ? H
   C1237      1.0     0.795575     0.310268     0.330767    Uiso  ? C
   H901       1.0     0.766285     0.304029     0.352086    Uiso  ? H
   C1238      1.0     0.819664     0.308019     0.329185    Uiso  ? C
   H902       1.0     0.850294     0.300210     0.346852    Uiso  ? H
   H903       1.0     0.785853     0.315015     0.315851    Uiso  ? H
   C1239      1.0     0.832211     0.313979     0.308125    Uiso  ? C
   C1240      1.0     0.848232     0.298845     0.298365    Uiso  ? C
   C1241      1.0     0.827362     0.335119     0.296918    Uiso  ? C
   C1242      1.0     0.860645     0.305807     0.278466    Uiso  ? C
   H904       1.0     0.849119     0.281872     0.305015    Uiso  ? H
   C1243      1.0     0.837797     0.341107     0.275934    Uiso  ? C
   H905       1.0     0.814851     0.345642     0.305516    Uiso  ? H
   C1244      1.0     0.854905     0.326642     0.266766    Uiso  ? C
   H906       1.0     0.873464     0.294925     0.272259    Uiso  ? H
   H907       1.0     0.831931     0.356103     0.266813    Uiso  ? H
   C1245      1.0     0.865418     0.330998     0.242400    Uiso  ? C
   H908       1.0     0.860091     0.347973     0.236072    Uiso  ? H
   H909       1.0     0.884949     0.329548     0.242759    Uiso  ? H
   N95        1.0     0.856753     0.314242     0.226118    Uiso  ? N
   C1246      1.0     0.838309     0.317257     0.213557    Uiso  ? C
   C1247      1.0     0.866824     0.294512     0.218893    Uiso  ? C
   C1248      1.0     0.834967     0.297808     0.200478    Uiso  ? C
   H910       1.0     0.826704     0.331780     0.215491    Uiso  ? H
   H911       1.0     0.883779     0.288745     0.222513    Uiso  ? H
   H912       1.0     0.818991     0.293932     0.190865    Uiso  ? H
   N96        1.0     0.853568     0.283793     0.203527    Uiso  ? N
