
#======================================================================
# CRYSTAL DATA
#----------------------------------------------------------------------
data_VESTA_phase_1

_chemical_name_common                  ' Atoms. Timestep: 0'
_cell_length_a                         51.372066
_cell_length_b                         51.372066
_cell_length_c                         51.372066
_cell_angle_alpha                      90.000000
_cell_angle_beta                       90.000000
_cell_angle_gamma                      90.000000
_cell_volume                           1.000000
_space_group_name_H-M_alt              'P 1'
_space_group_IT_number                 1

loop_
_space_group_symop_operation_xyz
   'x, y, z'

loop_
   _atom_site_label
   _atom_site_occupancy
   _atom_site_fract_x
   _atom_site_fract_y
   _atom_site_fract_z
   _atom_site_adp_type
   _atom_site_U_iso_or_equiv
   _atom_site_type_symbol
   C1         1.0     0.857471     0.797732     0.261323    Uiso  ? C
   C2         1.0     0.834556     0.809443     0.273284    Uiso  ? C
   C3         1.0     0.820270     0.794943     0.292045    Uiso  ? C
   H1         1.0     0.827643     0.777396     0.300597    Uiso  ? H
   C4         1.0     0.796251     0.802899     0.300321    Uiso  ? C
   H2         1.0     0.785511     0.791544     0.315002    Uiso  ? H
   C5         1.0     0.784838     0.825714     0.288565    Uiso  ? C
   H3         1.0     0.766501     0.833308     0.295829    Uiso  ? H
   C6         1.0     0.798398     0.839644     0.269017    Uiso  ? C
   C7         1.0     0.823555     0.831829     0.262265    Uiso  ? C
   H4         1.0     0.834466     0.843783     0.248366    Uiso  ? H
   C8         1.0     0.786802     0.862205     0.256829    Uiso  ? C
   C9         1.0     0.870781     0.745579     0.200079    Uiso  ? C
   C10        1.0     0.855785     0.729690     0.181187    Uiso  ? C
   C11        1.0     0.857130     0.702725     0.181112    Uiso  ? C
   H5         1.0     0.868745     0.690952     0.192472    Uiso  ? H
   C12        1.0     0.840489     0.688831     0.165784    Uiso  ? C
   H6         1.0     0.842264     0.667763     0.166291    Uiso  ? H
   C13        1.0     0.821953     0.700236     0.150231    Uiso  ? C
   H7         1.0     0.809762     0.688574     0.138322    Uiso  ? H
   C14        1.0     0.819481     0.727832     0.150829    Uiso  ? C
   C15        1.0     0.836886     0.741980     0.166025    Uiso  ? C
   H8         1.0     0.835772     0.763099     0.167540    Uiso  ? H
   C16        1.0     0.799939     0.742249     0.134964    Uiso  ? C
   C17        1.0     0.135169     0.752079     0.206813    Uiso  ? C
   C18        1.0     0.156224     0.738920     0.191837    Uiso  ? C
   C19        1.0     0.158353     0.711946     0.194638    Uiso  ? C
   H9         1.0     0.143808     0.700639     0.206058    Uiso  ? H
   C20        1.0     0.178175     0.697859     0.182005    Uiso  ? C
   H10        1.0     0.177756     0.676801     0.186508    Uiso  ? H
   C21        1.0     0.194634     0.710206     0.164513    Uiso  ? C
   H11        1.0     0.209665     0.699202     0.154640    Uiso  ? H
   C22        1.0     0.191326     0.737562     0.159766    Uiso  ? C
   C23        1.0     0.171173     0.751230     0.173094    Uiso  ? C
   H12        1.0     0.167795     0.770817     0.167102    Uiso  ? H
   C24        1.0     0.206104     0.749858     0.138880    Uiso  ? C
   C25        1.0     0.142058     0.791291     0.256118    Uiso  ? C
   C26        1.0     0.163246     0.805682     0.268707    Uiso  ? C
   C27        1.0     0.170968     0.798530     0.293868    Uiso  ? C
   H13        1.0     0.163700     0.781231     0.303814    Uiso  ? H
   C28        1.0     0.191282     0.812515     0.306967    Uiso  ? C
   H14        1.0     0.198795     0.805197     0.324242    Uiso  ? H
   C29        1.0     0.202213     0.835354     0.295511    Uiso  ? C
   H15        1.0     0.215706     0.847004     0.305784    Uiso  ? H
   C30        1.0     0.195784     0.841711     0.269581    Uiso  ? C
   C31        1.0     0.176708     0.827026     0.256957    Uiso  ? C
   H16        1.0     0.170280     0.834079     0.239524    Uiso  ? H
   C32        1.0     0.208880     0.863947     0.256259    Uiso  ? C
   C33        1.0     0.746035     0.141597     0.208779    Uiso  ? C
   C34        1.0     0.731593     0.159385     0.190598    Uiso  ? C
   C35        1.0     0.704029     0.160064     0.191353    Uiso  ? C
   H17        1.0     0.694269     0.148662     0.205909    Uiso  ? H
   C36        1.0     0.689788     0.178114     0.176604    Uiso  ? C
   H18        1.0     0.668798     0.177953     0.175382    Uiso  ? H
   C37        1.0     0.703004     0.194909     0.159532    Uiso  ? C
   H19        1.0     0.692136     0.208035     0.146010    Uiso  ? H
   C38        1.0     0.730931     0.194287     0.158045    Uiso  ? C
   C39        1.0     0.745558     0.177596     0.174778    Uiso  ? C
   H20        1.0     0.766083     0.179556     0.175584    Uiso  ? H
   C40        1.0     0.744633     0.209407     0.136790    Uiso  ? C
   C41        1.0     0.742264     0.867803     0.207521    Uiso  ? C
   C42        1.0     0.729666     0.845525     0.194447    Uiso  ? C
   C43        1.0     0.706394     0.835800     0.204010    Uiso  ? C
   H21        1.0     0.697522     0.845077     0.221125    Uiso  ? H
   C44        1.0     0.695998     0.811902     0.193979    Uiso  ? C
   H22        1.0     0.679958     0.804516     0.203727    Uiso  ? H
   C45        1.0     0.707062     0.800553     0.171758    Uiso  ? C
   H23        1.0     0.699727     0.784328     0.161672    Uiso  ? H
   C46        1.0     0.729140     0.809937     0.161245    Uiso  ? C
   C47        1.0     0.739502     0.834871     0.172048    Uiso  ? C
   H24        1.0     0.756293     0.844470     0.163351    Uiso  ? H
   C48        1.0     0.743601     0.796052     0.140590    Uiso  ? C
   C49        1.0     0.789732     0.142195     0.257078    Uiso  ? C
   C50        1.0     0.803237     0.162796     0.272244    Uiso  ? C
   C51        1.0     0.792056     0.173279     0.293909    Uiso  ? C
   H25        1.0     0.774694     0.166052     0.302985    Uiso  ? H
   C52        1.0     0.802530     0.196134     0.305822    Uiso  ? C
   H26        1.0     0.793487     0.203949     0.323337    Uiso  ? H
   C53        1.0     0.822909     0.208755     0.294332    Uiso  ? C
   H27        1.0     0.830666     0.226325     0.303064    Uiso  ? H
   C54        1.0     0.834707     0.199349     0.271696    Uiso  ? C
   C55        1.0     0.824108     0.176517     0.260345    Uiso  ? C
   H28        1.0     0.833144     0.168663     0.243067    Uiso  ? H
   C56        1.0     0.858249     0.212231     0.259557    Uiso  ? C
   C57        1.0     0.752647     0.787437     0.855768    Uiso  ? C
   C58        1.0     0.743650     0.795827     0.830238    Uiso  ? C
   C59        1.0     0.731482     0.776820     0.814086    Uiso  ? C
   H29        1.0     0.727577     0.757183     0.819875    Uiso  ? H
   C60        1.0     0.728101     0.783670     0.787887    Uiso  ? C
   H30        1.0     0.719999     0.770634     0.774469    Uiso  ? H
   C61        1.0     0.733688     0.808877     0.777914    Uiso  ? C
   H31        1.0     0.726871     0.815448     0.759268    Uiso  ? H
   C62        1.0     0.743237     0.828514     0.795344    Uiso  ? C
   C63        1.0     0.749007     0.821613     0.821054    Uiso  ? C
   H32        1.0     0.758285     0.834568     0.834221    Uiso  ? H
   C64        1.0     0.748227     0.854403     0.786047    Uiso  ? C
   C65        1.0     0.800047     0.748844     0.868442    Uiso  ? C
   C66        1.0     0.815623     0.734346     0.849508    Uiso  ? C
   C67        1.0     0.816262     0.706953     0.851203    Uiso  ? C
   H33        1.0     0.803963     0.695973     0.862974    Uiso  ? H
   C68        1.0     0.833382     0.692490     0.835366    Uiso  ? C
   H34        1.0     0.830701     0.671705     0.834046    Uiso  ? H
   C69        1.0     0.850967     0.705850     0.819277    Uiso  ? C
   H35        1.0     0.864453     0.693869     0.807681    Uiso  ? H
   C70        1.0     0.852608     0.732652     0.819670    Uiso  ? C
   C71        1.0     0.833944     0.746964     0.834097    Uiso  ? C
   H36        1.0     0.833378     0.768537     0.834009    Uiso  ? H
   C72        1.0     0.870291     0.745260     0.801069    Uiso  ? C
   C73        1.0     0.858900     0.257585     0.212110    Uiso  ? C
   C74        1.0     0.838653     0.271343     0.196355    Uiso  ? C
   C75        1.0     0.828330     0.294951     0.204809    Uiso  ? C
   H37        1.0     0.837662     0.305802     0.221561    Uiso  ? H
   C76        1.0     0.807449     0.306237     0.191085    Uiso  ? C
   H38        1.0     0.799830     0.325264     0.199055    Uiso  ? H
   C77        1.0     0.794869     0.293636     0.171899    Uiso  ? C
   H39        1.0     0.780310     0.303312     0.162168    Uiso  ? H
   C78        1.0     0.804224     0.269228     0.163860    Uiso  ? C
   C79        1.0     0.826076     0.257733     0.175918    Uiso  ? C
   H40        1.0     0.832654     0.238987     0.168658    Uiso  ? H
   C80        1.0     0.791024     0.255656     0.141616    Uiso  ? C
   C81        1.0     0.140878     0.210248     0.256515    Uiso  ? C
   C82        1.0     0.164159     0.197889     0.268356    Uiso  ? C
   C83        1.0     0.173924     0.204788     0.293313    Uiso  ? C
   H41        1.0     0.164910     0.221644     0.303869    Uiso  ? H
   C84        1.0     0.195511     0.192731     0.303359    Uiso  ? C
   H42        1.0     0.203522     0.198075     0.321616    Uiso  ? H
   C85        1.0     0.209011     0.174165     0.289296    Uiso  ? C
   H43        1.0     0.227028     0.164715     0.295440    Uiso  ? H
   C86        1.0     0.198171     0.164408     0.266517    Uiso  ? C
   C87        1.0     0.177202     0.176344     0.255886    Uiso  ? C
   H44        1.0     0.167720     0.167591     0.237859    Uiso  ? H
   C88        1.0     0.210788     0.142768     0.253601    Uiso  ? C
   C89        1.0     0.250618     0.859484     0.212750    Uiso  ? C
   C90        1.0     0.262387     0.835482     0.200611    Uiso  ? C
   C91        1.0     0.283862     0.823087     0.211742    Uiso  ? C
   H45        1.0     0.291135     0.831539     0.228441    Uiso  ? H
   C92        1.0     0.293673     0.800549     0.200854    Uiso  ? C
   H46        1.0     0.310787     0.791801     0.207885    Uiso  ? H
   C93        1.0     0.283596     0.791116     0.178027    Uiso  ? C
   H47        1.0     0.293061     0.773809     0.170272    Uiso  ? H
   C94        1.0     0.262411     0.802607     0.167229    Uiso  ? C
   C95        1.0     0.251587     0.825263     0.177109    Uiso  ? C
   H48        1.0     0.238517     0.836160     0.165139    Uiso  ? H
   C96        1.0     0.253201     0.790203     0.142078    Uiso  ? C
   O1         1.0     0.871511     0.810572     0.245190    Uiso  ? O
   O2         1.0     0.861923     0.773445     0.264874    Uiso  ? O
   O3         1.0     0.869030     0.769933     0.198968    Uiso  ? O
   O4         1.0     0.884873     0.736144     0.217685    Uiso  ? O
   O5         1.0     0.132616     0.777009     0.207095    Uiso  ? O
   O6         1.0     0.121152     0.739323     0.222242    Uiso  ? O
   O7         1.0     0.135204     0.797582     0.232487    Uiso  ? O
   O8         1.0     0.129493     0.773048     0.267675    Uiso  ? O
   O9         1.0     0.771048     0.141511     0.209445    Uiso  ? O
   O10        1.0     0.733018     0.125878     0.222285    Uiso  ? O
   O11        1.0     0.757741     0.882769     0.195258    Uiso  ? O
   O12        1.0     0.738503     0.868639     0.231857    Uiso  ? O
   O13        1.0     0.800549     0.879633     0.245806    Uiso  ? O
   O14        1.0     0.762324     0.864467     0.256892    Uiso  ? O
   O15        1.0     0.790905     0.140844     0.232267    Uiso  ? O
   O16        1.0     0.776915     0.125340     0.269173    Uiso  ? O
   O17        1.0     0.773801     0.795996     0.863786    Uiso  ? O
   O18        1.0     0.741809     0.768524     0.867977    Uiso  ? O
   O19        1.0     0.800290     0.773702     0.869168    Uiso  ? O
   O20        1.0     0.783409     0.738114     0.882487    Uiso  ? O
   O21        1.0     0.802552     0.766797     0.131385    Uiso  ? O
   O22        1.0     0.782340     0.730073     0.122889    Uiso  ? O
   O23        1.0     0.756793     0.810309     0.123861    Uiso  ? O
   O24        1.0     0.742910     0.771239     0.139652    Uiso  ? O
   O25        1.0     0.871944     0.239776     0.200941    Uiso  ? O
   O26        1.0     0.863523     0.262181     0.236335    Uiso  ? O
   O27        1.0     0.873004     0.198455     0.245063    Uiso  ? O
   O28        1.0     0.862567     0.236331     0.262469    Uiso  ? O
   O29        1.0     0.136647     0.206736     0.232115    Uiso  ? O
   O30        1.0     0.126045     0.225137     0.270822    Uiso  ? O
   O31        1.0     0.136574     0.227740     0.208812    Uiso  ? O
   O32        1.0     0.123268     0.266944     0.225146    Uiso  ? O
   O33        1.0     0.195588     0.126555     0.242983    Uiso  ? O
   O34        1.0     0.235133     0.139873     0.255008    Uiso  ? O
   O35        1.0     0.203841     0.869065     0.232999    Uiso  ? O
   O36        1.0     0.224430     0.879800     0.267885    Uiso  ? O
   O37        1.0     0.226843     0.865327     0.208137    Uiso  ? O
   O38        1.0     0.265103     0.875263     0.225299    Uiso  ? O
   O39        1.0     0.239591     0.124518     0.196173    Uiso  ? O
   O40        1.0     0.255175     0.137792     0.232666    Uiso  ? O
   O41        1.0     0.803114     0.244116     0.872472    Uiso  ? O
   O42        1.0     0.763237     0.256583     0.861867    Uiso  ? O
   O43        1.0     0.766760     0.196201     0.872588    Uiso  ? O
   O44        1.0     0.743625     0.231478     0.863653    Uiso  ? O
   O45        1.0     0.768911     0.208540     0.135273    Uiso  ? O
   O46        1.0     0.730871     0.223352     0.121197    Uiso  ? O
   O47        1.0     0.793817     0.231505     0.137745    Uiso  ? O
   O48        1.0     0.775560     0.268632     0.126213    Uiso  ? O
   O49        1.0     0.886204     0.821806     0.187375    Uiso  ? O
   O50        1.0     0.815835     0.895501     0.190288    Uiso  ? O
   O51        1.0     0.813297     0.824330     0.108806    Uiso  ? O
   O52        1.0     0.891234     0.181268     0.187676    Uiso  ? O
   O53        1.0     0.180696     0.110662     0.183734    Uiso  ? O
   O54        1.0     0.823886     0.190123     0.895389    Uiso  ? O
   Zn1        1.0     0.894035     0.795768     0.215862    Uiso  ? Zn
   Zn2        1.0     0.895384     0.750020     0.255388    Uiso  ? Zn
   Zn3        1.0     0.784046     0.103618     0.216597    Uiso  ? Zn
   Zn4        1.0     0.744649     0.102219     0.253964    Uiso  ? Zn
   Zn5        1.0     0.787824     0.794347     0.104406    Uiso  ? Zn
   Zn6        1.0     0.749439     0.747746     0.106762    Uiso  ? Zn
   Zn7        1.0     0.896243     0.209877     0.215017    Uiso  ? Zn
   Zn8        1.0     0.101488     0.255605     0.257069    Uiso  ? Zn
   Zn9        1.0     0.208091     0.104297     0.212165    Uiso  ? Zn
   Zn10       1.0     0.252952     0.103362     0.255405    Uiso  ? Zn
   Zn11       1.0     0.790035     0.214407     0.100681    Uiso  ? Zn
   Zn12       1.0     0.746068     0.255503     0.898807    Uiso  ? Zn
   C97        1.0     0.138129     0.205192     0.746890    Uiso  ? C
   C98        1.0     0.160620     0.190947     0.735529    Uiso  ? C
   C99        1.0     0.169695     0.197491     0.710744    Uiso  ? C
   H49        1.0     0.161266     0.212537     0.700216    Uiso  ? H
   C100       1.0     0.192311     0.187415     0.700578    Uiso  ? C
   H50        1.0     0.199866     0.194318     0.681761    Uiso  ? H
   C101       1.0     0.204007     0.166978     0.712965    Uiso  ? C
   H51        1.0     0.220441     0.157734     0.703471    Uiso  ? H
   C102       1.0     0.196359     0.159745     0.738325    Uiso  ? C
   C103       1.0     0.174332     0.171733     0.748937    Uiso  ? C
   H52        1.0     0.168495     0.167679     0.769312    Uiso  ? H
   C104       1.0     0.211608     0.139888     0.751964    Uiso  ? C
   C105       1.0     0.139761     0.250158     0.793643    Uiso  ? C
   C106       1.0     0.159498     0.266480     0.807576    Uiso  ? C
   C107       1.0     0.161622     0.294292     0.803539    Uiso  ? C
   H53        1.0     0.149743     0.304962     0.789792    Uiso  ? H
   C108       1.0     0.181538     0.307527     0.815785    Uiso  ? C
   H54        1.0     0.185656     0.327302     0.813087    Uiso  ? H
   C109       1.0     0.197270     0.295270     0.834727    Uiso  ? C
   H55        1.0     0.207420     0.306175     0.848776    Uiso  ? H
   C110       1.0     0.195833     0.267878     0.839261    Uiso  ? C
   C111       1.0     0.176891     0.253686     0.824233    Uiso  ? C
   H56        1.0     0.176542     0.233092     0.825055    Uiso  ? H
   C112       1.0     0.211512     0.256457     0.859293    Uiso  ? C
   C113       1.0     0.855437     0.251257     0.786012    Uiso  ? C
   C114       1.0     0.830594     0.261826     0.796654    Uiso  ? C
   C115       1.0     0.814765     0.277101     0.780217    Uiso  ? C
   H57        1.0     0.819785     0.281784     0.760469    Uiso  ? H
   C116       1.0     0.791240     0.286574     0.790437    Uiso  ? C
   H58        1.0     0.780365     0.300777     0.778411    Uiso  ? H
   C117       1.0     0.783358     0.279434     0.815372    Uiso  ? C
   H59        1.0     0.763727     0.285530     0.820905    Uiso  ? H
   C118       1.0     0.798182     0.264237     0.831290    Uiso  ? C
   C119       1.0     0.823351     0.256371     0.822398    Uiso  ? C
   H60        1.0     0.834236     0.244646     0.833719    Uiso  ? H
   C120       1.0     0.788009     0.256899     0.857670    Uiso  ? C
   C121       1.0     0.862824     0.198955     0.743643    Uiso  ? C
   C122       1.0     0.845396     0.183092     0.730314    Uiso  ? C
   C123       1.0     0.840901     0.189447     0.703629    Uiso  ? C
   H61        1.0     0.853453     0.204115     0.693002    Uiso  ? H
   C124       1.0     0.824221     0.173539     0.689804    Uiso  ? C
   H62        1.0     0.821961     0.176823     0.668927    Uiso  ? H
   C125       1.0     0.807000     0.157264     0.704040    Uiso  ? C
   H63        1.0     0.792402     0.147510     0.691862    Uiso  ? H
   C126       1.0     0.810387     0.152225     0.730130    Uiso  ? C
   C127       1.0     0.832058     0.162800     0.743499    Uiso  ? C
   H64        1.0     0.835585     0.157543     0.763144    Uiso  ? H
   C128       1.0     0.794016     0.131768     0.744291    Uiso  ? C
   C129       1.0     0.262992     0.863679     0.794653    Uiso  ? C
   C130       1.0     0.276571     0.841497     0.806934    Uiso  ? C
   C131       1.0     0.298249     0.829139     0.795017    Uiso  ? C
   H65        1.0     0.307173     0.837114     0.778107    Uiso  ? H
   C132       1.0     0.308119     0.806015     0.804983    Uiso  ? C
   H66        1.0     0.323973     0.797514     0.794519    Uiso  ? H
   C133       1.0     0.296447     0.793641     0.825683    Uiso  ? C
   H67        1.0     0.303380     0.775374     0.833822    Uiso  ? H
   C134       1.0     0.275615     0.805110     0.837713    Uiso  ? C
   C135       1.0     0.265016     0.829351     0.829020    Uiso  ? C
   H68        1.0     0.248726     0.837585     0.840647    Uiso  ? H
   C136       1.0     0.261085     0.792438     0.860835    Uiso  ? C
   C137       1.0     0.260064     0.137866     0.795529    Uiso  ? C
   C138       1.0     0.272040     0.160440     0.809694    Uiso  ? C
   C139       1.0     0.296304     0.168654     0.802813    Uiso  ? C
   H69        1.0     0.305072     0.162522     0.784027    Uiso  ? H
   C140       1.0     0.308871     0.187372     0.818096    Uiso  ? C
   H70        1.0     0.328146     0.193493     0.813336    Uiso  ? H
   C141       1.0     0.296769     0.200689     0.838035    Uiso  ? C
   H71        1.0     0.308923     0.216241     0.846477    Uiso  ? H
   C142       1.0     0.270476     0.194369     0.844384    Uiso  ? C
   C143       1.0     0.258776     0.173463     0.830215    Uiso  ? C
   H72        1.0     0.238973     0.167558     0.835514    Uiso  ? H
   C144       1.0     0.257210     0.208781     0.866262    Uiso  ? C
   C145       1.0     0.217371     0.860346     0.747415    Uiso  ? C
   C146       1.0     0.206675     0.835827     0.736931    Uiso  ? C
   C147       1.0     0.221232     0.821508     0.718725    Uiso  ? C
   H73        1.0     0.237793     0.829746     0.710621    Uiso  ? H
   C148       1.0     0.212684     0.797830     0.709385    Uiso  ? C
   H74        1.0     0.222882     0.788073     0.693765    Uiso  ? H
   C149       1.0     0.189439     0.786652     0.717963    Uiso  ? C
   H75        1.0     0.183900     0.768952     0.708369    Uiso  ? H
   C150       1.0     0.175915     0.798665     0.738819    Uiso  ? C
   C151       1.0     0.185144     0.823715     0.748457    Uiso  ? C
   H76        1.0     0.175412     0.833826     0.763712    Uiso  ? H
   C152       1.0     0.150727     0.788381     0.749479    Uiso  ? C
   C153       1.0     0.251412     0.211536     0.141727    Uiso  ? C
   C154       1.0     0.263386     0.199076     0.164399    Uiso  ? C
   C155       1.0     0.281950     0.212700     0.180298    Uiso  ? C
   H77        1.0     0.289420     0.231648     0.173815    Uiso  ? H
   C156       1.0     0.292577     0.200984     0.203079    Uiso  ? C
   H78        1.0     0.305726     0.212021     0.214375    Uiso  ? H
   C157       1.0     0.282458     0.178030     0.211769    Uiso  ? C
   H79        1.0     0.286616     0.172729     0.232371    Uiso  ? H
   C158       1.0     0.265631     0.163604     0.196251    Uiso  ? C
   C159       1.0     0.257111     0.173068     0.172469    Uiso  ? C
   H80        1.0     0.244486     0.161578     0.161129    Uiso  ? H
   C160       1.0     0.253951     0.140233     0.207823    Uiso  ? C
   C161       1.0     0.207418     0.258759     0.139262    Uiso  ? C
   C162       1.0     0.195149     0.269423     0.163297    Uiso  ? C
   C163       1.0     0.204844     0.291770     0.174532    Uiso  ? C
   H81        1.0     0.219175     0.302262     0.164154    Uiso  ? H
   C164       1.0     0.192421     0.302397     0.196464    Uiso  ? C
   H82        1.0     0.197736     0.320890     0.203797    Uiso  ? H
   C165       1.0     0.171798     0.290295     0.208506    Uiso  ? C
   H83        1.0     0.163045     0.298567     0.225388    Uiso  ? H
   C166       1.0     0.162444     0.265320     0.198289    Uiso  ? C
   C167       1.0     0.174364     0.255207     0.175863    Uiso  ? C
   H84        1.0     0.165490     0.238572     0.169493    Uiso  ? H
   C168       1.0     0.139875     0.252813     0.211223    Uiso  ? C
   C169       1.0     0.134710     0.737655     0.805680    Uiso  ? C
   C170       1.0     0.147352     0.721884     0.826890    Uiso  ? C
   C171       1.0     0.150358     0.694427     0.824940    Uiso  ? C
   H85        1.0     0.140730     0.683431     0.809478    Uiso  ? H
   C172       1.0     0.167437     0.681535     0.842566    Uiso  ? C
   H86        1.0     0.171975     0.659546     0.840676    Uiso  ? H
   C173       1.0     0.181896     0.696496     0.859897    Uiso  ? C
   H87        1.0     0.195782     0.686707     0.871411    Uiso  ? H
   C174       1.0     0.180235     0.723067     0.861524    Uiso  ? C
   C175       1.0     0.161476     0.735928     0.845869    Uiso  ? C
   H88        1.0     0.160494     0.757008     0.846549    Uiso  ? H
   C176       1.0     0.197902     0.739269     0.877120    Uiso  ? C
   C177       1.0     0.867227     0.788432     0.748194    Uiso  ? C
   C178       1.0     0.844639     0.800985     0.734881    Uiso  ? C
   C179       1.0     0.835138     0.790682     0.711320    Uiso  ? C
   H89        1.0     0.843255     0.774523     0.700263    Uiso  ? H
   C180       1.0     0.813519     0.802871     0.699541    Uiso  ? C
   H90        1.0     0.806061     0.794600     0.681685    Uiso  ? H
   C181       1.0     0.802416     0.825565     0.711193    Uiso  ? C
   H91        1.0     0.785673     0.835539     0.701600    Uiso  ? H
   C182       1.0     0.811346     0.834856     0.735381    Uiso  ? C
   C183       1.0     0.832714     0.822909     0.746487    Uiso  ? C
   H92        1.0     0.839695     0.830291     0.765014    Uiso  ? H
   C184       1.0     0.798937     0.858006     0.747005    Uiso  ? C
   C185       1.0     0.750006     0.135766     0.790871    Uiso  ? C
   C186       1.0     0.737596     0.158759     0.803311    Uiso  ? C
   C187       1.0     0.714738     0.169097     0.792821    Uiso  ? C
   H93        1.0     0.708189     0.159966     0.773980    Uiso  ? H
   C188       1.0     0.705016     0.191414     0.802579    Uiso  ? C
   H94        1.0     0.689333     0.199982     0.792447    Uiso  ? H
   C189       1.0     0.716676     0.205026     0.822668    Uiso  ? C
   H95        1.0     0.705980     0.222051     0.830209    Uiso  ? H
   C190       1.0     0.738289     0.194266     0.835124    Uiso  ? C
   C191       1.0     0.748707     0.170979     0.825191    Uiso  ? C
   H96        1.0     0.765746     0.161495     0.834137    Uiso  ? H
   C192       1.0     0.749969     0.208038     0.857999    Uiso  ? C
   O55        1.0     0.133344     0.202931     0.770947    Uiso  ? O
   O56        1.0     0.123628     0.219385     0.733234    Uiso  ? O
   O57        1.0     0.137356     0.225853     0.796866    Uiso  ? O
   O58        1.0     0.125584     0.260817     0.776933    Uiso  ? O
   O59        1.0     0.874097     0.244863     0.801079    Uiso  ? O
   O60        1.0     0.857961     0.248201     0.762326    Uiso  ? O
   O61        1.0     0.875881     0.188504     0.762708    Uiso  ? O
   O62        1.0     0.865337     0.223569     0.739076    Uiso  ? O
   O63        1.0     0.247247     0.877200     0.808398    Uiso  ? O
   O64        1.0     0.264507     0.866528     0.770613    Uiso  ? O
   O65        1.0     0.235859     0.134541     0.796383    Uiso  ? O
   O66        1.0     0.274777     0.123909     0.781422    Uiso  ? O
   O67        1.0     0.209815     0.136196     0.776120    Uiso  ? O
   O68        1.0     0.227326     0.124758     0.739024    Uiso  ? O
   O69        1.0     0.203290     0.875547     0.761234    Uiso  ? O
   O70        1.0     0.241863     0.863579     0.748315    Uiso  ? O
   O71        1.0     0.238488     0.198534     0.124925    Uiso  ? O
   O72        1.0     0.254154     0.235755     0.138786    Uiso  ? O
   O73        1.0     0.193763     0.249618     0.121684    Uiso  ? O
   O74        1.0     0.232956     0.258351     0.136489    Uiso  ? O
   O75        1.0     0.210459     0.232114     0.864049    Uiso  ? O
   O76        1.0     0.225687     0.270515     0.874586    Uiso  ? O
   O77        1.0     0.232341     0.209683     0.867379    Uiso  ? O
   O78        1.0     0.269914     0.224075     0.881583    Uiso  ? O
   O79        1.0     0.133997     0.761855     0.809067    Uiso  ? O
   O80        1.0     0.119720     0.727085     0.788712    Uiso  ? O
   O81        1.0     0.134441     0.802414     0.762094    Uiso  ? O
   O82        1.0     0.147199     0.764578     0.745054    Uiso  ? O
   O83        1.0     0.871846     0.793913     0.772425    Uiso  ? O
   O84        1.0     0.879808     0.769789     0.737252    Uiso  ? O
   O85        1.0     0.869874     0.770167     0.797452    Uiso  ? O
   O86        1.0     0.886124     0.731996     0.787453    Uiso  ? O
   O87        1.0     0.809994     0.871177     0.764350    Uiso  ? O
   O88        1.0     0.774400     0.862610     0.742494    Uiso  ? O
   O89        1.0     0.794892     0.131308     0.769231    Uiso  ? O
   O90        1.0     0.776670     0.119468     0.731772    Uiso  ? O
   O91        1.0     0.774124     0.133133     0.791957    Uiso  ? O
   O92        1.0     0.735529     0.119660     0.778598    Uiso  ? O
   O93        1.0     0.755785     0.871907     0.801830    Uiso  ? O
   O94        1.0     0.749840     0.857839     0.761886    Uiso  ? O
   O95        1.0     0.204230     0.774463     0.135035    Uiso  ? O
   O96        1.0     0.221872     0.735432     0.125281    Uiso  ? O
   O97        1.0     0.230280     0.796500     0.135552    Uiso  ? O
   O98        1.0     0.267091     0.772619     0.130213    Uiso  ? O
   O99        1.0     0.244235     0.805754     0.873717    Uiso  ? O
   O100       1.0     0.263796     0.768240     0.865686    Uiso  ? O
   O101       1.0     0.194026     0.763638     0.878989    Uiso  ? O
   O102       1.0     0.218898     0.729719     0.887478    Uiso  ? O
   O103       1.0     0.886607     0.180502     0.816235    Uiso  ? O
   O104       1.0     0.184951     0.895647     0.818199    Uiso  ? O
   O105       1.0     0.179745     0.194088     0.108009    Uiso  ? O
   O106       1.0     0.109012     0.820383     0.817467    Uiso  ? O
   O107       1.0     0.811763     0.890059     0.823044    Uiso  ? O
   O108       1.0     0.185599     0.821469     0.887834    Uiso  ? O
   Zn13       1.0     0.896747     0.210913     0.791459    Uiso  ? Zn
   Zn14       1.0     0.895768     0.249619     0.746366    Uiso  ? Zn
   Zn15       1.0     0.216745     0.898357     0.790392    Uiso  ? Zn
   Zn16       1.0     0.259394     0.101823     0.750851    Uiso  ? Zn
   Zn17       1.0     0.211283     0.217461     0.103068    Uiso  ? Zn
   Zn18       1.0     0.254704     0.256199     0.101954    Uiso  ? Zn
   Zn19       1.0     0.110327     0.789054     0.792107    Uiso  ? Zn
   Zn20       1.0     0.110691     0.744522     0.751661    Uiso  ? Zn
   Zn21       1.0     0.789574     0.895725     0.789714    Uiso  ? Zn
   Zn22       1.0     0.747592     0.896370     0.747024    Uiso  ? Zn
   Zn23       1.0     0.213658     0.793240     0.898149    Uiso  ? Zn
   Zn24       1.0     0.255448     0.746004     0.101281    Uiso  ? Zn
   H97        1.0     0.170694     0.883384     0.816217    Uiso  ? H
   H98        1.0     0.185269     0.104892     0.834595    Uiso  ? H
   H99        1.0     0.813752     0.101041     0.172337    Uiso  ? H
   H100       1.0     0.831248     0.887061     0.196561    Uiso  ? H
   H101       1.0     0.836072     0.193319     0.881883    Uiso  ? H
   H102       1.0     0.824918     0.174060     0.107249    Uiso  ? H
   H103       1.0     0.889953     0.162845     0.192233    Uiso  ? H
   H104       1.0     0.888587     0.186548     0.168787    Uiso  ? H
   H105       1.0     0.189985     0.839158     0.893006    Uiso  ? H
   H106       1.0     0.173394     0.817331     0.873797    Uiso  ? H
   H107       1.0     0.875002     0.817634     0.172791    Uiso  ? H
   H108       1.0     0.894868     0.838159     0.190903    Uiso  ? H
   H109       1.0     0.183600     0.897174     0.169970    Uiso  ? H
   H110       1.0     0.174890     0.128078     0.179995    Uiso  ? H
   H111       1.0     0.124237     0.829283     0.824663    Uiso  ? H
   H112       1.0     0.889511     0.823852     0.824646    Uiso  ? H
   H113       1.0     0.809558     0.842307     0.106761    Uiso  ? H
   H114       1.0     0.831260     0.819764     0.113314    Uiso  ? H
   H115       1.0     0.817883     0.103477     0.833402    Uiso  ? H
   H116       1.0     0.812501     0.872742     0.829232    Uiso  ? H
   H117       1.0     0.161979     0.198983     0.111714    Uiso  ? H
   H118       1.0     0.185040     0.179079     0.116845    Uiso  ? H
   H119       1.0     0.896217     0.164353     0.814533    Uiso  ? H
   H120       1.0     0.878344     0.184030     0.832860    Uiso  ? H
   C193       1.0     0.852639     0.609899     0.344204    Uiso  ? C
   C194       1.0     0.828992     0.599130     0.332785    Uiso  ? C
   C195       1.0     0.810379     0.614641     0.318462    Uiso  ? C
   H121       1.0     0.816162     0.634879     0.312694    Uiso  ? H
   C196       1.0     0.786352     0.605737     0.309978    Uiso  ? C
   H122       1.0     0.774073     0.617983     0.299714    Uiso  ? H
   C197       1.0     0.778852     0.580013     0.317244    Uiso  ? C
   H123       1.0     0.760035     0.573846     0.312887    Uiso  ? H
   C198       1.0     0.794419     0.565949     0.335787    Uiso  ? C
   C199       1.0     0.820324     0.574652     0.340708    Uiso  ? C
   H124       1.0     0.832776     0.564314     0.355562    Uiso  ? H
   C200       1.0     0.784273     0.541543     0.346411    Uiso  ? C
   C201       1.0     0.855041     0.656739     0.390900    Uiso  ? C
   C202       1.0     0.831373     0.667498     0.405149    Uiso  ? C
   C203       1.0     0.818138     0.688297     0.393213    Uiso  ? C
   H125       1.0     0.827635     0.699959     0.378561    Uiso  ? H
   C204       1.0     0.794304     0.696666     0.402103    Uiso  ? C
   H126       1.0     0.787647     0.714631     0.393207    Uiso  ? H
   C205       1.0     0.783728     0.685119     0.424683    Uiso  ? C
   H127       1.0     0.767075     0.693154     0.431045    Uiso  ? H
   C206       1.0     0.795579     0.663800     0.436542    Uiso  ? C
   C207       1.0     0.819553     0.655235     0.426661    Uiso  ? C
   H128       1.0     0.829206     0.638895     0.435423    Uiso  ? H
   C208       1.0     0.784108     0.651049     0.461102    Uiso  ? C
   C209       1.0     0.137770     0.653101     0.390486    Uiso  ? C
   C210       1.0     0.158050     0.664911     0.407824    Uiso  ? C
   C211       1.0     0.168346     0.689401     0.398625    Uiso  ? C
   H129       1.0     0.159230     0.700238     0.382832    Uiso  ? H
   C212       1.0     0.188680     0.700913     0.410563    Uiso  ? C
   H130       1.0     0.196503     0.718421     0.402619    Uiso  ? H
   C213       1.0     0.200389     0.689203     0.432974    Uiso  ? C
   H131       1.0     0.216771     0.698601     0.442216    Uiso  ? H
   C214       1.0     0.189832     0.665407     0.442794    Uiso  ? C
   C215       1.0     0.170044     0.653047     0.429462    Uiso  ? C
   H132       1.0     0.163614     0.634081     0.435944    Uiso  ? H
   C216       1.0     0.204199     0.652772     0.464481    Uiso  ? C
   C217       1.0     0.134679     0.607397     0.345993    Uiso  ? C
   C218       1.0     0.157204     0.593417     0.333920    Uiso  ? C
   C219       1.0     0.162060     0.597725     0.307402    Uiso  ? C
   H133       1.0     0.149564     0.610570     0.296194    Uiso  ? H
   C220       1.0     0.178130     0.582695     0.293821    Uiso  ? C
   H134       1.0     0.180392     0.583546     0.272884    Uiso  ? H
   C221       1.0     0.192848     0.563934     0.306251    Uiso  ? C
   H135       1.0     0.206705     0.552052     0.294090    Uiso  ? H
   C222       1.0     0.191086     0.560827     0.333361    Uiso  ? C
   C223       1.0     0.171166     0.573817     0.348025    Uiso  ? C
   H136       1.0     0.167781     0.569638     0.369326    Uiso  ? H
   C224       1.0     0.206590     0.539660     0.347061    Uiso  ? C
   C225       1.0     0.749945     0.460349     0.395070    Uiso  ? C
   C226       1.0     0.738375     0.435024     0.405214    Uiso  ? C
   C227       1.0     0.716096     0.425065     0.393964    Uiso  ? C
   H137       1.0     0.706496     0.431160     0.376733    Uiso  ? H
   C228       1.0     0.703523     0.403615     0.405449    Uiso  ? C
   H138       1.0     0.685046     0.397159     0.397786    Uiso  ? H
   C229       1.0     0.713706     0.393419     0.428608    Uiso  ? C
   H139       1.0     0.703360     0.377350     0.437317    Uiso  ? H
   C230       1.0     0.735728     0.404238     0.440420    Uiso  ? C
   C231       1.0     0.749001     0.424868     0.428144    Uiso  ? C
   H140       1.0     0.769143     0.431424     0.434774    Uiso  ? H
   C232       1.0     0.746516     0.390675     0.463607    Uiso  ? C
   C233       1.0     0.746700     0.533513     0.400155    Uiso  ? C
   C234       1.0     0.731620     0.551953     0.415897    Uiso  ? C
   C235       1.0     0.706206     0.556270     0.409097    Uiso  ? C
   H141       1.0     0.696726     0.545445     0.394299    Uiso  ? H
   C236       1.0     0.691540     0.575347     0.422227    Uiso  ? C
   H142       1.0     0.670764     0.577628     0.416882    Uiso  ? H
   C237       1.0     0.703743     0.591778     0.439991    Uiso  ? C
   H143       1.0     0.691431     0.605494     0.448046    Uiso  ? H
   C238       1.0     0.728979     0.587202     0.448424    Uiso  ? C
   C239       1.0     0.743851     0.568376     0.434625    Uiso  ? C
   H144       1.0     0.765319     0.564360     0.437992    Uiso  ? H
   C240       1.0     0.740939     0.602184     0.469988    Uiso  ? C
   C241       1.0     0.793451     0.461731     0.348481    Uiso  ? C
   C242       1.0     0.809384     0.441642     0.335701    Uiso  ? C
   C243       1.0     0.803605     0.434702     0.309179    Uiso  ? C
   H145       1.0     0.787701     0.445570     0.300057    Uiso  ? H
   C244       1.0     0.814313     0.412624     0.298365    Uiso  ? C
   H146       1.0     0.808222     0.405068     0.280003    Uiso  ? H
   C245       1.0     0.835003     0.400384     0.311977    Uiso  ? C
   H147       1.0     0.843510     0.384148     0.301403    Uiso  ? H
   C246       1.0     0.842737     0.407503     0.336834    Uiso  ? C
   C247       1.0     0.830703     0.429164     0.348862    Uiso  ? C
   H148       1.0     0.836802     0.434325     0.368670    Uiso  ? H
   C248       1.0     0.862421     0.391508     0.350221    Uiso  ? C
   C249       1.0     0.737610     0.598786     0.531934    Uiso  ? C
   C250       1.0     0.723028     0.579968     0.547353    Uiso  ? C
   C251       1.0     0.695756     0.577510     0.545683    Uiso  ? C
   H149       1.0     0.683324     0.589391     0.533597    Uiso  ? H
   C252       1.0     0.682808     0.560171     0.562130    Uiso  ? C
   H150       1.0     0.661469     0.564138     0.565785    Uiso  ? H
   C253       1.0     0.696052     0.544028     0.578168    Uiso  ? C
   H151       1.0     0.686532     0.528545     0.589547    Uiso  ? H
   C254       1.0     0.723032     0.544476     0.579701    Uiso  ? C
   C255       1.0     0.736477     0.562920     0.564559    Uiso  ? C
   H152       1.0     0.758043     0.562723     0.565129    Uiso  ? H
   C256       1.0     0.738262     0.528150     0.597215    Uiso  ? C
   C257       1.0     0.783438     0.659235     0.543674    Uiso  ? C
   C258       1.0     0.795400     0.668573     0.567064    Uiso  ? C
   C259       1.0     0.787150     0.692344     0.577584    Uiso  ? C
   H153       1.0     0.770320     0.700925     0.570726    Uiso  ? H
   C260       1.0     0.800712     0.703732     0.596878    Uiso  ? C
   H154       1.0     0.795998     0.723056     0.603901    Uiso  ? H
   C261       1.0     0.824237     0.693545     0.605505    Uiso  ? C
   H155       1.0     0.835496     0.703786     0.621010    Uiso  ? H
   C262       1.0     0.831752     0.668191     0.598558    Uiso  ? C
   C263       1.0     0.817305     0.655603     0.577778    Uiso  ? C
   H156       1.0     0.825298     0.637359     0.569918    Uiso  ? H
   C264       1.0     0.854769     0.655480     0.611557    Uiso  ? C
   C265       1.0     0.857702     0.341185     0.389993    Uiso  ? C
   C266       1.0     0.833600     0.330640     0.401048    Uiso  ? C
   C267       1.0     0.819598     0.312001     0.387219    Uiso  ? C
   H157       1.0     0.825745     0.305327     0.367804    Uiso  ? H
   C268       1.0     0.794094     0.303824     0.395757    Uiso  ? C
   H158       1.0     0.781474     0.290713     0.383130    Uiso  ? H
   C269       1.0     0.783648     0.312327     0.418801    Uiso  ? C
   H159       1.0     0.762986     0.308283     0.423428    Uiso  ? H
   C270       1.0     0.798511     0.330424     0.434000    Uiso  ? C
   C271       1.0     0.824418     0.339507     0.425951    Uiso  ? C
   H160       1.0     0.833501     0.355675     0.436908    Uiso  ? H
   C272       1.0     0.787254     0.340108     0.459249    Uiso  ? C
   C273       1.0     0.142734     0.388134     0.347369    Uiso  ? C
   C274       1.0     0.164708     0.401589     0.334673    Uiso  ? C
   C275       1.0     0.174975     0.392884     0.310841    Uiso  ? C
   H161       1.0     0.167161     0.377035     0.299093    Uiso  ? H
   C276       1.0     0.196530     0.405675     0.299281    Uiso  ? C
   H162       1.0     0.205731     0.397225     0.282019    Uiso  ? H
   C277       1.0     0.206565     0.427373     0.311723    Uiso  ? C
   H163       1.0     0.220691     0.439265     0.301331    Uiso  ? H
   C278       1.0     0.195221     0.437336     0.334683    Uiso  ? C
   C279       1.0     0.174048     0.423840     0.344938    Uiso  ? C
   H164       1.0     0.165529     0.433131     0.363267    Uiso  ? H
   C280       1.0     0.207396     0.460012     0.348233    Uiso  ? C
   C281       1.0     0.254093     0.540888     0.393694    Uiso  ? C
   C282       1.0     0.266280     0.564004     0.407853    Uiso  ? C
   C283       1.0     0.290849     0.572283     0.398646    Uiso  ? C
   H165       1.0     0.297401     0.567154     0.379663    Uiso  ? H
   C284       1.0     0.303647     0.592681     0.410904    Uiso  ? C
   H166       1.0     0.321043     0.601139     0.401815    Uiso  ? H
   C285       1.0     0.291450     0.604579     0.432437    Uiso  ? C
   H167       1.0     0.300782     0.621255     0.440168    Uiso  ? H
   C286       1.0     0.267564     0.596327     0.443108    Uiso  ? C
   C287       1.0     0.255953     0.575252     0.430377    Uiso  ? C
   H168       1.0     0.236919     0.568690     0.436484    Uiso  ? H
   C288       1.0     0.253699     0.610989     0.464073    Uiso  ? C
   O109       1.0     0.867449     0.596321     0.358988    Uiso  ? O
   O110       1.0     0.856708     0.634562     0.342670    Uiso  ? O
   O111       1.0     0.874233     0.648976     0.403491    Uiso  ? O
   O112       1.0     0.856801     0.656887     0.365511    Uiso  ? O
   O113       1.0     0.132911     0.628529     0.392331    Uiso  ? O
   O114       1.0     0.122576     0.666745     0.375155    Uiso  ? O
   O115       1.0     0.129550     0.603354     0.370531    Uiso  ? O
   O116       1.0     0.122105     0.624043     0.331783    Uiso  ? O
   O117       1.0     0.774422     0.465262     0.396857    Uiso  ? O
   O118       1.0     0.736111     0.474837     0.379863    Uiso  ? O
   O119       1.0     0.762160     0.517938     0.410635    Uiso  ? O
   O120       1.0     0.742875     0.533353     0.375149    Uiso  ? O
   O121       1.0     0.799455     0.524481     0.354573    Uiso  ? O
   O122       1.0     0.760219     0.538862     0.350160    Uiso  ? O
   O123       1.0     0.795281     0.463259     0.374099    Uiso  ? O
   O124       1.0     0.778519     0.476643     0.334810    Uiso  ? O
   O125       1.0     0.762186     0.596646     0.529702    Uiso  ? O
   O126       1.0     0.725329     0.614814     0.517206    Uiso  ? O
   O127       1.0     0.797423     0.652356     0.524306    Uiso  ? O
   O128       1.0     0.759780     0.653923     0.543127    Uiso  ? O
   O129       1.0     0.787845     0.626310     0.467140    Uiso  ? O
   O130       1.0     0.768381     0.664757     0.475552    Uiso  ? O
   O131       1.0     0.766032     0.604217     0.473603    Uiso  ? O
   O132       1.0     0.725919     0.615421     0.485230    Uiso  ? O
   O133       1.0     0.873479     0.353726     0.404717    Uiso  ? O
   O134       1.0     0.860704     0.343104     0.365708    Uiso  ? O
   O135       1.0     0.878198     0.403308     0.365505    Uiso  ? O
   O136       1.0     0.865407     0.367131     0.345132    Uiso  ? O
   O137       1.0     0.138373     0.391321     0.371166    Uiso  ? O
   O138       1.0     0.127874     0.373589     0.333515    Uiso  ? O
   O139       1.0     0.140597     0.368828     0.399249    Uiso  ? O
   O140       1.0     0.126094     0.330889     0.383130    Uiso  ? O
   O141       1.0     0.194206     0.476770     0.360063    Uiso  ? O
   O142       1.0     0.232183     0.464600     0.344992    Uiso  ? O
   O143       1.0     0.207221     0.536540     0.371563    Uiso  ? O
   O144       1.0     0.219662     0.523482     0.332715    Uiso  ? O
   O145       1.0     0.230069     0.535467     0.397813    Uiso  ? O
   O146       1.0     0.265718     0.525929     0.377161    Uiso  ? O
   O147       1.0     0.237404     0.474899     0.404587    Uiso  ? O
   O148       1.0     0.254978     0.463728     0.368608    Uiso  ? O
   O149       1.0     0.794596     0.369091     0.535753    Uiso  ? O
   O150       1.0     0.778809     0.331343     0.522620    Uiso  ? O
   O151       1.0     0.773191     0.392547     0.533015    Uiso  ? O
   O152       1.0     0.734904     0.376772     0.520292    Uiso  ? O
   O153       1.0     0.763823     0.402555     0.476110    Uiso  ? O
   O154       1.0     0.742741     0.366368     0.467171    Uiso  ? O
   O155       1.0     0.802857     0.350228     0.474463    Uiso  ? O
   O156       1.0     0.762618     0.342460     0.462106    Uiso  ? O
   O157       1.0     0.882852     0.590345     0.418094    Uiso  ? O
   O158       1.0     0.824994     0.511189     0.405280    Uiso  ? O
   O159       1.0     0.822820     0.600067     0.517084    Uiso  ? O
   O160       1.0     0.897539     0.409843     0.424750    Uiso  ? O
   O161       1.0     0.183459     0.498184     0.415106    Uiso  ? O
   O162       1.0     0.826639     0.401846     0.491550    Uiso  ? O
   Zn25       1.0     0.891581     0.613720     0.387389    Uiso  ? Zn
   Zn26       1.0     0.895741     0.654584     0.345769    Uiso  ? Zn
   Zn27       1.0     0.789759     0.501030     0.386674    Uiso  ? Zn
   Zn28       1.0     0.745458     0.499679     0.349756    Uiso  ? Zn
   Zn29       1.0     0.786415     0.617627     0.507621    Uiso  ? Zn
   Zn30       1.0     0.741036     0.652513     0.505659    Uiso  ? Zn
   Zn31       1.0     0.102868     0.384200     0.393425    Uiso  ? Zn
   Zn32       1.0     0.102542     0.345222     0.350098    Uiso  ? Zn
   Zn33       1.0     0.212685     0.499987     0.389102    Uiso  ? Zn
   Zn34       1.0     0.253422     0.500853     0.346949    Uiso  ? Zn
   Zn35       1.0     0.792342     0.383924     0.497114    Uiso  ? Zn
   Zn36       1.0     0.747767     0.343707     0.500781    Uiso  ? Zn
   C289       1.0     0.139200     0.390042     0.661203    Uiso  ? C
   C290       1.0     0.165626     0.399257     0.670502    Uiso  ? C
   C291       1.0     0.180597     0.383151     0.686610    Uiso  ? C
   H169       1.0     0.174553     0.362747     0.691982    Uiso  ? H
   C292       1.0     0.205540     0.391151     0.694320    Uiso  ? C
   H170       1.0     0.216738     0.377420     0.705737    Uiso  ? H
   C293       1.0     0.214039     0.416015     0.687719    Uiso  ? C
   H171       1.0     0.232736     0.422770     0.693855    Uiso  ? H
   C294       1.0     0.200169     0.430251     0.668943    Uiso  ? C
   C295       1.0     0.176329     0.421020     0.658947    Uiso  ? C
   H172       1.0     0.165200     0.429633     0.644071    Uiso  ? H
   C296       1.0     0.211733     0.455755     0.658414    Uiso  ? C
   C297       1.0     0.132108     0.337083     0.602877    Uiso  ? C
   C298       1.0     0.148906     0.322710     0.584510    Uiso  ? C
   C299       1.0     0.154014     0.295819     0.585816    Uiso  ? C
   H173       1.0     0.142676     0.285491     0.600571    Uiso  ? H
   C300       1.0     0.172502     0.283687     0.571987    Uiso  ? C
   H174       1.0     0.176172     0.262255     0.573397    Uiso  ? H
   C301       1.0     0.187860     0.298467     0.554195    Uiso  ? C
   H175       1.0     0.201866     0.287950     0.541792    Uiso  ? H
   C302       1.0     0.183094     0.325705     0.551383    Uiso  ? C
   C303       1.0     0.164440     0.337056     0.567018    Uiso  ? C
   H176       1.0     0.163279     0.357692     0.567748    Uiso  ? H
   C304       1.0     0.201720     0.339365     0.533959    Uiso  ? C
   C305       1.0     0.865483     0.343750     0.605062    Uiso  ? C
   C306       1.0     0.843973     0.330548     0.590283    Uiso  ? C
   C307       1.0     0.837771     0.305362     0.596868    Uiso  ? C
   H177       1.0     0.849120     0.294366     0.610909    Uiso  ? H
   C308       1.0     0.816556     0.293071     0.585773    Uiso  ? C
   H178       1.0     0.813102     0.272020     0.589582    Uiso  ? H
   C309       1.0     0.802966     0.305293     0.565046    Uiso  ? C
   H179       1.0     0.787331     0.294507     0.555157    Uiso  ? H
   C310       1.0     0.809643     0.330527     0.557477    Uiso  ? C
   C311       1.0     0.830828     0.343865     0.570066    Uiso  ? C
   H180       1.0     0.835062     0.364119     0.566093    Uiso  ? H
   C312       1.0     0.793946     0.344428     0.537523    Uiso  ? C
   C313       1.0     0.851738     0.384126     0.650327    Uiso  ? C
   C314       1.0     0.825091     0.394554     0.658731    Uiso  ? C
   C315       1.0     0.810552     0.382470     0.679666    Uiso  ? C
   H181       1.0     0.817587     0.364711     0.687949    Uiso  ? H
   C316       1.0     0.787252     0.394733     0.687828    Uiso  ? C
   H182       1.0     0.775218     0.386871     0.704147    Uiso  ? H
   C317       1.0     0.779179     0.417572     0.677223    Uiso  ? C
   H183       1.0     0.762987     0.428545     0.685125    Uiso  ? H
   C318       1.0     0.793671     0.429768     0.657429    Uiso  ? C
   C319       1.0     0.816250     0.417423     0.647661    Uiso  ? C
   H184       1.0     0.824908     0.425660     0.629433    Uiso  ? H
   C320       1.0     0.784094     0.454503     0.646401    Uiso  ? C
   C321       1.0     0.252284     0.540059     0.613876    Uiso  ? C
   C322       1.0     0.262173     0.563872     0.601242    Uiso  ? C
   C323       1.0     0.279661     0.578644     0.615694    Uiso  ? C
   H185       1.0     0.286817     0.573231     0.635615    Uiso  ? H
   C324       1.0     0.286628     0.603047     0.606035    Uiso  ? C
   H186       1.0     0.303238     0.613654     0.616480    Uiso  ? H
   C325       1.0     0.277660     0.611209     0.582524    Uiso  ? C
   H187       1.0     0.283534     0.631403     0.577305    Uiso  ? H
   C326       1.0     0.261739     0.596962     0.566005    Uiso  ? C
   C327       1.0     0.254837     0.571695     0.575425    Uiso  ? C
   H188       1.0     0.240572     0.560093     0.564701    Uiso  ? H
   C328       1.0     0.251668     0.608945     0.541572    Uiso  ? C
   C329       1.0     0.257309     0.465770     0.610584    Uiso  ? C
   C330       1.0     0.272340     0.444301     0.596458    Uiso  ? C
   C331       1.0     0.293784     0.432748     0.608112    Uiso  ? C
   H189       1.0     0.299981     0.440490     0.625326    Uiso  ? H
   C332       1.0     0.304974     0.410263     0.596209    Uiso  ? C
   H190       1.0     0.323832     0.404172     0.600853    Uiso  ? H
   C333       1.0     0.293209     0.398765     0.574944    Uiso  ? C
   H191       1.0     0.301521     0.381506     0.566885    Uiso  ? H
   C334       1.0     0.270540     0.408749     0.564431    Uiso  ? C
   C335       1.0     0.260042     0.432283     0.574601    Uiso  ? C
   H192       1.0     0.243667     0.442868     0.566165    Uiso  ? H
   C336       1.0     0.257741     0.395562     0.543051    Uiso  ? C
   C337       1.0     0.209729     0.539796     0.661754    Uiso  ? C
   C338       1.0     0.198145     0.565238     0.670183    Uiso  ? C
   C339       1.0     0.214551     0.582049     0.684149    Uiso  ? C
   H193       1.0     0.233879     0.574921     0.691848    Uiso  ? H
   C340       1.0     0.206002     0.608026     0.688371    Uiso  ? C
   H194       1.0     0.219330     0.621142     0.699233    Uiso  ? H
   C341       1.0     0.181692     0.616136     0.680313    Uiso  ? C
   H195       1.0     0.176741     0.636396     0.681584    Uiso  ? H
   C342       1.0     0.163978     0.599897     0.666323    Uiso  ? C
   C343       1.0     0.172193     0.573408     0.662486    Uiso  ? C
   H196       1.0     0.159630     0.560818     0.649710    Uiso  ? H
   C344       1.0     0.140378     0.611366     0.653086    Uiso  ? C
   C345       1.0     0.253501     0.390153     0.462714    Uiso  ? C
   C346       1.0     0.265607     0.403913     0.440192    Uiso  ? C
   C347       1.0     0.288940     0.395333     0.430907    Uiso  ? C
   H197       1.0     0.299909     0.379367     0.439697    Uiso  ? H
   C348       1.0     0.299244     0.406557     0.408939    Uiso  ? C
   H198       1.0     0.318283     0.398062     0.401727    Uiso  ? H
   C349       1.0     0.288614     0.428629     0.396337    Uiso  ? C
   H199       1.0     0.296326     0.438093     0.379178    Uiso  ? H
   C350       1.0     0.266198     0.438769     0.406971    Uiso  ? C
   C351       1.0     0.254664     0.426768     0.429038    Uiso  ? C
   H200       1.0     0.237575     0.433704     0.437889    Uiso  ? H
   C352       1.0     0.254293     0.461803     0.393606    Uiso  ? C
   C353       1.0     0.209055     0.345780     0.468672    Uiso  ? C
   C354       1.0     0.195186     0.331450     0.448210    Uiso  ? C
   C355       1.0     0.198750     0.304604     0.445430    Uiso  ? C
   H201       1.0     0.212449     0.295296     0.458239    Uiso  ? H
   C356       1.0     0.184623     0.290569     0.426869    Uiso  ? C
   H202       1.0     0.185325     0.270150     0.425001    Uiso  ? H
   C357       1.0     0.166144     0.303508     0.411073    Uiso  ? C
   H203       1.0     0.155986     0.292842     0.396224    Uiso  ? H
   C358       1.0     0.162776     0.331187     0.413165    Uiso  ? C
   C359       1.0     0.176818     0.344287     0.432020    Uiso  ? C
   H204       1.0     0.174224     0.365766     0.433258    Uiso  ? H
   C360       1.0     0.141494     0.343511     0.398093    Uiso  ? C
   C361       1.0     0.134767     0.657973     0.608151    Uiso  ? C
   C362       1.0     0.157661     0.670757     0.596925    Uiso  ? C
   C363       1.0     0.170918     0.689942     0.611984    Uiso  ? C
   H205       1.0     0.162109     0.699755     0.628465    Uiso  ? H
   C364       1.0     0.195047     0.699015     0.603975    Uiso  ? C
   H206       1.0     0.204513     0.715269     0.615567    Uiso  ? H
   C365       1.0     0.206462     0.691141     0.580640    Uiso  ? C
   H207       1.0     0.222985     0.702441     0.572386    Uiso  ? H
   C366       1.0     0.194538     0.671288     0.565672    Uiso  ? C
   C367       1.0     0.170172     0.660862     0.574156    Uiso  ? C
   H208       1.0     0.160963     0.645807     0.563522    Uiso  ? H
   C368       1.0     0.207292     0.657384     0.542181    Uiso  ? C
   C369       1.0     0.858639     0.610426     0.659829    Uiso  ? C
   C370       1.0     0.836440     0.595611     0.672935    Uiso  ? C
   C371       1.0     0.826575     0.603043     0.697978    Uiso  ? C
   H209       1.0     0.835476     0.620015     0.708456    Uiso  ? H
   C372       1.0     0.805696     0.589481     0.709303    Uiso  ? C
   H210       1.0     0.800529     0.592136     0.729746    Uiso  ? H
   C373       1.0     0.795782     0.566718     0.696547    Uiso  ? C
   H211       1.0     0.778194     0.558729     0.703080    Uiso  ? H
   C374       1.0     0.804187     0.559992     0.672053    Uiso  ? C
   C375       1.0     0.825052     0.573877     0.660018    Uiso  ? C
   H212       1.0     0.832118     0.569914     0.640729    Uiso  ? H
   C376       1.0     0.789846     0.538858     0.657865    Uiso  ? C
   C377       1.0     0.745346     0.465565     0.601270    Uiso  ? C
   C378       1.0     0.732827     0.443224     0.587250    Uiso  ? C
   C379       1.0     0.706291     0.438017     0.590303    Uiso  ? C
   H213       1.0     0.694986     0.449208     0.603327    Uiso  ? H
   C380       1.0     0.694312     0.417031     0.578160    Uiso  ? C
   H214       1.0     0.673653     0.414148     0.581442    Uiso  ? H
   C381       1.0     0.708094     0.401581     0.559580    Uiso  ? C
   H215       1.0     0.699062     0.384535     0.550865    Uiso  ? H
   C382       1.0     0.733900     0.407999     0.553995    Uiso  ? C
   C383       1.0     0.746821     0.428434     0.568102    Uiso  ? C
   H216       1.0     0.767114     0.431177     0.565026    Uiso  ? H
   C384       1.0     0.748279     0.393285     0.533815    Uiso  ? C
   O163       1.0     0.124581     0.403637     0.648439    Uiso  ? O
   O164       1.0     0.133474     0.366360     0.663408    Uiso  ? O
   O165       1.0     0.129081     0.361094     0.600355    Uiso  ? O
   O166       1.0     0.117080     0.324678     0.618962    Uiso  ? O
   O167       1.0     0.867805     0.368696     0.603166    Uiso  ? O
   O168       1.0     0.878420     0.330305     0.621534    Uiso  ? O
   O169       1.0     0.861880     0.391268     0.628763    Uiso  ? O
   O170       1.0     0.863513     0.366268     0.663625    Uiso  ? O
   O171       1.0     0.238207     0.524755     0.600812    Uiso  ? O
   O172       1.0     0.254762     0.535995     0.637881    Uiso  ? O
   O173       1.0     0.232546     0.466947     0.610629    Uiso  ? O
   O174       1.0     0.270655     0.480019     0.625505    Uiso  ? O
   O175       1.0     0.209308     0.461038     0.633959    Uiso  ? O
   O176       1.0     0.226021     0.469801     0.672845    Uiso  ? O
   O177       1.0     0.195910     0.523685     0.648315    Uiso  ? O
   O178       1.0     0.234420     0.534897     0.664756    Uiso  ? O
   O179       1.0     0.228640     0.392228     0.467273    Uiso  ? O
   O180       1.0     0.267176     0.375585     0.476402    Uiso  ? O
   O181       1.0     0.207236     0.370679     0.470915    Uiso  ? O
   O182       1.0     0.223444     0.333050     0.485580    Uiso  ? O
   O183       1.0     0.198421     0.363707     0.531471    Uiso  ? O
   O184       1.0     0.220387     0.328791     0.520557    Uiso  ? O
   O185       1.0     0.242365     0.409181     0.528499    Uiso  ? O
   O186       1.0     0.260700     0.371324     0.540149    Uiso  ? O
   O187       1.0     0.119980     0.643436     0.594451    Uiso  ? O
   O188       1.0     0.132696     0.659463     0.632907    Uiso  ? O
   O189       1.0     0.124190     0.596440     0.640476    Uiso  ? O
   O190       1.0     0.134222     0.634955     0.657403    Uiso  ? O
   O191       1.0     0.862777     0.607884     0.636047    Uiso  ? O
   O192       1.0     0.873242     0.624878     0.673422    Uiso  ? O
   O193       1.0     0.858872     0.630459     0.610578    Uiso  ? O
   O194       1.0     0.869131     0.668944     0.627634    Uiso  ? O
   O195       1.0     0.803040     0.523071     0.644733    Uiso  ? O
   O196       1.0     0.765156     0.535547     0.661402    Uiso  ? O
   O197       1.0     0.792213     0.462003     0.623196    Uiso  ? O
   O198       1.0     0.768520     0.468670     0.659210    Uiso  ? O
   O199       1.0     0.769985     0.467195     0.602601    Uiso  ? O
   O200       1.0     0.730867     0.481218     0.614915    Uiso  ? O
   O201       1.0     0.763474     0.527222     0.595718    Uiso  ? O
   O202       1.0     0.726448     0.512904     0.613037    Uiso  ? O
   O203       1.0     0.202638     0.627757     0.465745    Uiso  ? O
   O204       1.0     0.220926     0.666289     0.478540    Uiso  ? O
   O205       1.0     0.228836     0.607917     0.467592    Uiso  ? O
   O206       1.0     0.267134     0.626162     0.477934    Uiso  ? O
   O207       1.0     0.238849     0.595782     0.525353    Uiso  ? O
   O208       1.0     0.252002     0.633982     0.540227    Uiso  ? O
   O209       1.0     0.194180     0.644038     0.526560    Uiso  ? O
   O210       1.0     0.231879     0.657384     0.539265    Uiso  ? O
   O211       1.0     0.111753     0.423683     0.598021    Uiso  ? O
   O212       1.0     0.179861     0.507386     0.596292    Uiso  ? O
   O213       1.0     0.195607     0.426163     0.509918    Uiso  ? O
   O214       1.0     0.897362     0.596290     0.577994    Uiso  ? O
   O215       1.0     0.822477     0.505908     0.588934    Uiso  ? O
   O216       1.0     0.183311     0.585247     0.507925    Uiso  ? O
   Zn37       1.0     0.103730     0.389111     0.616877    Uiso  ? Zn
   Zn38       1.0     0.897784     0.343092     0.655355    Uiso  ? Zn
   Zn39       1.0     0.210549     0.500806     0.619758    Uiso  ? Zn
   Zn40       1.0     0.254444     0.498371     0.659607    Uiso  ? Zn
   Zn41       1.0     0.216560     0.390663     0.508001    Uiso  ? Zn
   Zn42       1.0     0.255226     0.348161     0.507055    Uiso  ? Zn
   Zn43       1.0     0.896009     0.615698     0.614734    Uiso  ? Zn
   Zn44       1.0     0.895166     0.656975     0.657092    Uiso  ? Zn
   Zn45       1.0     0.791441     0.501281     0.613580    Uiso  ? Zn
   Zn46       1.0     0.745422     0.501908     0.650362    Uiso  ? Zn
   Zn47       1.0     0.210661     0.612875     0.503571    Uiso  ? Zn
   Zn48       1.0     0.251644     0.654226     0.502366    Uiso  ? Zn
   H217       1.0     0.178620     0.497614     0.580136    Uiso  ? H
   H218       1.0     0.172692     0.524459     0.595837    Uiso  ? H
   H219       1.0     0.842145     0.507092     0.398778    Uiso  ? H
   H220       1.0     0.824385     0.516093     0.423879    Uiso  ? H
   H221       1.0     0.839776     0.401143     0.505079    Uiso  ? H
   H222       1.0     0.830236     0.410923     0.475392    Uiso  ? H
   H223       1.0     0.887769     0.402720     0.438954    Uiso  ? H
   H224       1.0     0.104984     0.427872     0.423443    Uiso  ? H
   H225       1.0     0.180220     0.575094     0.523755    Uiso  ? H
   H226       1.0     0.171550     0.584708     0.494130    Uiso  ? H
   H227       1.0     0.878585     0.599006     0.433383    Uiso  ? H
   H228       1.0     0.882517     0.571555     0.418295    Uiso  ? H
   H229       1.0     0.167652     0.490700     0.409101    Uiso  ? H
   H230       1.0     0.190104     0.494951     0.432738    Uiso  ? H
   H231       1.0     0.111524     0.580998     0.578076    Uiso  ? H
   H232       1.0     0.893062     0.606214     0.563331    Uiso  ? H
   H233       1.0     0.827659     0.583024     0.510177    Uiso  ? H
   H234       1.0     0.832788     0.606122     0.532271    Uiso  ? H
   H235       1.0     0.827844     0.497063     0.573457    Uiso  ? H
   H236       1.0     0.836300     0.517025     0.594653    Uiso  ? H
   H237       1.0     0.201366     0.438652     0.497135    Uiso  ? H
   H238       1.0     0.190812     0.430251     0.528265    Uiso  ? H
   H239       1.0     0.124950     0.422974     0.583807    Uiso  ? H
   H240       1.0     0.897193     0.438296     0.599070    Uiso  ? H
   C385       1.0     0.654216     0.140633     0.613481    Uiso  ? C
   C386       1.0     0.665528     0.164904     0.601017    Uiso  ? C
   C387       1.0     0.688128     0.176841     0.612307    Uiso  ? C
   H241       1.0     0.699408     0.165624     0.627689    Uiso  ? H
   C388       1.0     0.698223     0.199499     0.599969    Uiso  ? C
   H242       1.0     0.715633     0.207139     0.607458    Uiso  ? H
   C389       1.0     0.687145     0.210157     0.577792    Uiso  ? C
   H243       1.0     0.695309     0.225915     0.567193    Uiso  ? H
   C390       1.0     0.664498     0.198856     0.567099    Uiso  ? C
   C391       1.0     0.653897     0.175928     0.578654    Uiso  ? C
   H244       1.0     0.637474     0.165904     0.569928    Uiso  ? H
   C392       1.0     0.652850     0.209906     0.542033    Uiso  ? C
   C393       1.0     0.610619     0.140033     0.660121    Uiso  ? C
   C394       1.0     0.598610     0.164674     0.670492    Uiso  ? C
   C395       1.0     0.609231     0.176225     0.692158    Uiso  ? C
   H245       1.0     0.625695     0.166173     0.701807    Uiso  ? H
   C396       1.0     0.599930     0.198931     0.702391    Uiso  ? C
   H246       1.0     0.610099     0.207814     0.717648    Uiso  ? H
   C397       1.0     0.577963     0.212133     0.690439    Uiso  ? C
   H247       1.0     0.570998     0.229740     0.698461    Uiso  ? H
   C398       1.0     0.564823     0.201017     0.669558    Uiso  ? C
   C399       1.0     0.576312     0.177321     0.657732    Uiso  ? C
   H248       1.0     0.568351     0.169427     0.640437    Uiso  ? H
   C400       1.0     0.541595     0.212146     0.657197    Uiso  ? C
   C401       1.0     0.605970     0.860233     0.656045    Uiso  ? C
   C402       1.0     0.592288     0.838739     0.668596    Uiso  ? C
   C403       1.0     0.594723     0.833820     0.695391    Uiso  ? C
   H249       1.0     0.609963     0.843467     0.706241    Uiso  ? H
   C404       1.0     0.580299     0.814940     0.708499    Uiso  ? C
   H250       1.0     0.585551     0.811944     0.728160    Uiso  ? H
   C405       1.0     0.562069     0.800907     0.694519    Uiso  ? C
   H251       1.0     0.549932     0.786421     0.704847    Uiso  ? H
   C406       1.0     0.558110     0.804652     0.667720    Uiso  ? C
   C407       1.0     0.573122     0.823830     0.653707    Uiso  ? C
   H252       1.0     0.570523     0.829111     0.633727    Uiso  ? H
   C408       1.0     0.536224     0.790639     0.653991    Uiso  ? C
   C409       1.0     0.656505     0.864027     0.612498    Uiso  ? C
   C410       1.0     0.670036     0.845192     0.595484    Uiso  ? C
   C411       1.0     0.697713     0.846231     0.593682    Uiso  ? C
   H253       1.0     0.709260     0.856249     0.608423    Uiso  ? H
   C412       1.0     0.709408     0.830949     0.574588    Uiso  ? C
   H254       1.0     0.729605     0.830721     0.573437    Uiso  ? H
   C413       1.0     0.694740     0.814021     0.557265    Uiso  ? C
   H255       1.0     0.705775     0.800668     0.544291    Uiso  ? H
   C414       1.0     0.668956     0.812394     0.560296    Uiso  ? C
   C415       1.0     0.656009     0.829049     0.579114    Uiso  ? C
   H256       1.0     0.634988     0.828091     0.577955    Uiso  ? H
   C416       1.0     0.652601     0.797316     0.541455    Uiso  ? C
   C417       1.0     0.613356     0.252625     0.461030    Uiso  ? C
   C418       1.0     0.603848     0.264855     0.435888    Uiso  ? C
   C419       1.0     0.617916     0.284662     0.422805    Uiso  ? C
   H257       1.0     0.635599     0.291844     0.429538    Uiso  ? H
   C420       1.0     0.607535     0.294054     0.398796    Uiso  ? C
   H258       1.0     0.616258     0.311649     0.391311    Uiso  ? H
   C421       1.0     0.584075     0.284217     0.389357    Uiso  ? C
   H259       1.0     0.577965     0.290872     0.370971    Uiso  ? H
   C422       1.0     0.568851     0.266198     0.402656    Uiso  ? C
   C423       1.0     0.579298     0.256906     0.427156    Uiso  ? C
   H260       1.0     0.566926     0.243234     0.437942    Uiso  ? H
   C424       1.0     0.543491     0.258600     0.391405    Uiso  ? C
   C425       1.0     0.604627     0.252831     0.540776    Uiso  ? C
   C426       1.0     0.593948     0.264695     0.565011    Uiso  ? C
   C427       1.0     0.604676     0.287811     0.575528    Uiso  ? C
   H261       1.0     0.621666     0.297891     0.566461    Uiso  ? H
   C428       1.0     0.593547     0.299893     0.596709    Uiso  ? C
   H262       1.0     0.602184     0.318476     0.604209    Uiso  ? H
   C429       1.0     0.572981     0.287474     0.610276    Uiso  ? C
   H263       1.0     0.565172     0.296748     0.626122    Uiso  ? H
   C430       1.0     0.561469     0.265868     0.599800    Uiso  ? C
   C431       1.0     0.572257     0.253777     0.578096    Uiso  ? C
   H264       1.0     0.563163     0.235619     0.570393    Uiso  ? H
   C432       1.0     0.537507     0.254282     0.611186    Uiso  ? C
   C433       1.0     0.649932     0.202914     0.466095    Uiso  ? C
   C434       1.0     0.662530     0.189603     0.443902    Uiso  ? C
   C435       1.0     0.686327     0.198859     0.433069    Uiso  ? C
   H265       1.0     0.698014     0.214164     0.443666    Uiso  ? H
   C436       1.0     0.696831     0.187517     0.411244    Uiso  ? C
   H266       1.0     0.712773     0.196779     0.402967    Uiso  ? H
   C437       1.0     0.683197     0.167630     0.398440    Uiso  ? C
   H267       1.0     0.688609     0.162996     0.379406    Uiso  ? H
   C438       1.0     0.658616     0.158094     0.407881    Uiso  ? C
   C439       1.0     0.648338     0.169624     0.429752    Uiso  ? C
   H268       1.0     0.630618     0.164692     0.436571    Uiso  ? H
   C440       1.0     0.646895     0.136203     0.392695    Uiso  ? C
   C441       1.0     0.459934     0.258721     0.616490    Uiso  ? C
   C442       1.0     0.436004     0.269073     0.603230    Uiso  ? C
   C443       1.0     0.424412     0.292244     0.613808    Uiso  ? C
   H269       1.0     0.433690     0.300365     0.630355    Uiso  ? H
   C444       1.0     0.402254     0.303895     0.602811    Uiso  ? C
   H270       1.0     0.396352     0.322614     0.610786    Uiso  ? H
   C445       1.0     0.391589     0.291853     0.581728    Uiso  ? C
   H271       1.0     0.374376     0.301655     0.575182    Uiso  ? H
   C446       1.0     0.402342     0.267987     0.570259    Uiso  ? C
   C447       1.0     0.424948     0.257681     0.580723    Uiso  ? C
   H272       1.0     0.435226     0.241275     0.574138    Uiso  ? H
   C448       1.0     0.390287     0.258051     0.546158    Uiso  ? C
   C449       1.0     0.458723     0.211644     0.659918    Uiso  ? C
   C450       1.0     0.436836     0.197788     0.673056    Uiso  ? C
   C451       1.0     0.427445     0.207081     0.696853    Uiso  ? C
   H273       1.0     0.433127     0.225637     0.705359    Uiso  ? H
   C452       1.0     0.405712     0.195613     0.708065    Uiso  ? C
   H274       1.0     0.396364     0.205260     0.724965    Uiso  ? H
   C453       1.0     0.392798     0.177052     0.693283    Uiso  ? C
   H275       1.0     0.375466     0.168755     0.701692    Uiso  ? H
   C454       1.0     0.401044     0.167322     0.668810    Uiso  ? C
   C455       1.0     0.423400     0.178938     0.658735    Uiso  ? C
   H276       1.0     0.429347     0.175665     0.638689    Uiso  ? H
   C456       1.0     0.388535     0.144931     0.653812    Uiso  ? C
   C457       1.0     0.600491     0.134090     0.345683    Uiso  ? C
   C458       1.0     0.587491     0.156524     0.333058    Uiso  ? C
   C459       1.0     0.591871     0.160799     0.306855    Uiso  ? C
   H277       1.0     0.608610     0.152526     0.297154    Uiso  ? H
   C460       1.0     0.577301     0.180278     0.293549    Uiso  ? C
   H278       1.0     0.581305     0.183626     0.273502    Uiso  ? H
   C461       1.0     0.559529     0.195998     0.308152    Uiso  ? C
   H279       1.0     0.547435     0.209420     0.298064    Uiso  ? H
   C462       1.0     0.556126     0.193604     0.334810    Uiso  ? C
   C463       1.0     0.568993     0.172134     0.346892    Uiso  ? C
   H280       1.0     0.565604     0.169170     0.367242    Uiso  ? H
   C464       1.0     0.536244     0.208458     0.349835    Uiso  ? C
   C465       1.0     0.651006     0.862744     0.393227    Uiso  ? C
   C466       1.0     0.663585     0.840300     0.406582    Uiso  ? C
   C467       1.0     0.684310     0.827040     0.394790    Uiso  ? C
   H281       1.0     0.690479     0.833779     0.376671    Uiso  ? H
   C468       1.0     0.697154     0.806918     0.407435    Uiso  ? C
   H282       1.0     0.713638     0.798972     0.398932    Uiso  ? H
   C469       1.0     0.686434     0.796979     0.431222    Uiso  ? C
   H283       1.0     0.697191     0.779471     0.440891    Uiso  ? H
   C470       1.0     0.663443     0.806412     0.441405    Uiso  ? C
   C471       1.0     0.652819     0.829458     0.429476    Uiso  ? C
   H284       1.0     0.636822     0.840326     0.437531    Uiso  ? H
   C472       1.0     0.652209     0.793356     0.464417    Uiso  ? C
   C473       1.0     0.608802     0.748301     0.541062    Uiso  ? C
   C474       1.0     0.594404     0.734628     0.561830    Uiso  ? C
   C475       1.0     0.603514     0.711475     0.571896    Uiso  ? C
   H285       1.0     0.622557     0.703638     0.567607    Uiso  ? H
   C476       1.0     0.590660     0.699749     0.592502    Uiso  ? C
   H286       1.0     0.598273     0.682499     0.601955    Uiso  ? H
   C477       1.0     0.567702     0.709330     0.602229    Uiso  ? C
   H287       1.0     0.558150     0.699276     0.617670    Uiso  ? H
   C478       1.0     0.558193     0.732995     0.592670    Uiso  ? C
   C479       1.0     0.571226     0.746391     0.572704    Uiso  ? C
   H288       1.0     0.564794     0.764292     0.564976    Uiso  ? H
   C480       1.0     0.536547     0.746163     0.605412    Uiso  ? C
   O217       1.0     0.639348     0.125951     0.599566    Uiso  ? O
   O218       1.0     0.656344     0.136503     0.638360    Uiso  ? O
   O219       1.0     0.597598     0.125899     0.644678    Uiso  ? O
   O220       1.0     0.634821     0.135562     0.662642    Uiso  ? O
   O221       1.0     0.606313     0.862801     0.631769    Uiso  ? O
   O222       1.0     0.618586     0.877034     0.669264    Uiso  ? O
   O223       1.0     0.631829     0.865701     0.612636    Uiso  ? O
   O224       1.0     0.670011     0.877328     0.628273    Uiso  ? O
   O225       1.0     0.597392     0.244111     0.477899    Uiso  ? O
   O226       1.0     0.638032     0.251732     0.466089    Uiso  ? O
   O227       1.0     0.603640     0.227566     0.539250    Uiso  ? O
   O228       1.0     0.619674     0.265629     0.526359    Uiso  ? O
   O229       1.0     0.629419     0.206393     0.536285    Uiso  ? O
   O230       1.0     0.665094     0.228109     0.531543    Uiso  ? O
   O231       1.0     0.633215     0.190298     0.480696    Uiso  ? O
   O232       1.0     0.656984     0.226188     0.470742    Uiso  ? O
   O233       1.0     0.464864     0.234012     0.615151    Uiso  ? O
   O234       1.0     0.474977     0.272846     0.629271    Uiso  ? O
   O235       1.0     0.462433     0.210743     0.636028    Uiso  ? O
   O236       1.0     0.475485     0.224335     0.672988    Uiso  ? O
   O237       1.0     0.524940     0.197088     0.646189    Uiso  ? O
   O238       1.0     0.537281     0.236871     0.658281    Uiso  ? O
   O239       1.0     0.524850     0.236476     0.599154    Uiso  ? O
   O240       1.0     0.534089     0.257237     0.636441    Uiso  ? O
   O241       1.0     0.599607     0.132887     0.370000    Uiso  ? O
   O242       1.0     0.617192     0.120523     0.332881    Uiso  ? O
   O243       1.0     0.622676     0.131787     0.394922    Uiso  ? O
   O244       1.0     0.659497     0.124745     0.375505    Uiso  ? O
   O245       1.0     0.635297     0.877834     0.404305    Uiso  ? O
   O246       1.0     0.658178     0.866429     0.368916    Uiso  ? O
   O247       1.0     0.597288     0.870427     0.349909    Uiso  ? O
   O248       1.0     0.637995     0.860848     0.341494    Uiso  ? O
   O249       1.0     0.642938     0.807010     0.481835    Uiso  ? O
   O250       1.0     0.651376     0.768331     0.466177    Uiso  ? O
   O251       1.0     0.628177     0.797473     0.542101    Uiso  ? O
   O252       1.0     0.664751     0.783314     0.524785    Uiso  ? O
   O253       1.0     0.608787     0.773149     0.539353    Uiso  ? O
   O254       1.0     0.623069     0.735656     0.525766    Uiso  ? O
   O255       1.0     0.593339     0.764547     0.482098    Uiso  ? O
   O256       1.0     0.628613     0.743964     0.468801    Uiso  ? O
   O257       1.0     0.466019     0.212000     0.374555    Uiso  ? O
   O258       1.0     0.476694     0.228060     0.335244    Uiso  ? O
   O259       1.0     0.464732     0.235830     0.397116    Uiso  ? O
   O260       1.0     0.478481     0.272249     0.381629    Uiso  ? O
   O261       1.0     0.527321     0.246843     0.406208    Uiso  ? O
   O262       1.0     0.540275     0.257479     0.366592    Uiso  ? O
   O263       1.0     0.521835     0.197223     0.366093    Uiso  ? O
   O264       1.0     0.536349     0.233385     0.346812    Uiso  ? O
   O265       1.0     0.584472     0.110843     0.584101    Uiso  ? O
   O266       1.0     0.576820     0.187252     0.494649    Uiso  ? O
   O267       1.0     0.495171     0.180984     0.589767    Uiso  ? O
   O268       1.0     0.571808     0.894279     0.405720    Uiso  ? O
   O269       1.0     0.589833     0.824638     0.498992    Uiso  ? O
   O270       1.0     0.504619     0.192370     0.425190    Uiso  ? O
   Zn49       1.0     0.610284     0.101626     0.615789    Uiso  ? Zn
   Zn50       1.0     0.652969     0.899858     0.659079    Uiso  ? Zn
   Zn51       1.0     0.607506     0.213790     0.501499    Uiso  ? Zn
   Zn52       1.0     0.652353     0.253947     0.503174    Uiso  ? Zn
   Zn53       1.0     0.500016     0.210821     0.617687    Uiso  ? Zn
   Zn54       1.0     0.498260     0.255567     0.659216    Uiso  ? Zn
   Zn55       1.0     0.606021     0.894843     0.383173    Uiso  ? Zn
   Zn56       1.0     0.650730     0.100000     0.344765    Uiso  ? Zn
   Zn57       1.0     0.612176     0.793240     0.504223    Uiso  ? Zn
   Zn58       1.0     0.652867     0.750627     0.502438    Uiso  ? Zn
   Zn59       1.0     0.501760     0.219165     0.393933    Uiso  ? Zn
   Zn60       1.0     0.501740     0.257723     0.350883    Uiso  ? Zn
   C481       1.0     0.346059     0.865055     0.390826    Uiso  ? C
   C482       1.0     0.331533     0.843522     0.403127    Uiso  ? C
   C483       1.0     0.305071     0.840939     0.398765    Uiso  ? C
   H289       1.0     0.294432     0.856914     0.388382    Uiso  ? H
   C484       1.0     0.291902     0.818193     0.407816    Uiso  ? C
   H290       1.0     0.272278     0.814438     0.401198    Uiso  ? H
   C485       1.0     0.304184     0.801612     0.424973    Uiso  ? C
   H291       1.0     0.294097     0.783222     0.428876    Uiso  ? H
   C486       1.0     0.329884     0.806373     0.434490    Uiso  ? C
   C487       1.0     0.343183     0.826912     0.422223    Uiso  ? C
   H292       1.0     0.363313     0.829160     0.426385    Uiso  ? H
   C488       1.0     0.341424     0.791420     0.456060    Uiso  ? C
   C489       1.0     0.393098     0.867642     0.345506    Uiso  ? C
   C490       1.0     0.408012     0.844151     0.332756    Uiso  ? C
   C491       1.0     0.400987     0.835767     0.307538    Uiso  ? C
   H293       1.0     0.385395     0.846866     0.298918    Uiso  ? H
   C492       1.0     0.414294     0.816593     0.294393    Uiso  ? C
   H294       1.0     0.409254     0.809013     0.274247    Uiso  ? H
   C493       1.0     0.434595     0.804438     0.306634    Uiso  ? C
   H295       1.0     0.443902     0.787336     0.296363    Uiso  ? H
   C494       1.0     0.440803     0.810111     0.332651    Uiso  ? C
   C495       1.0     0.428422     0.830589     0.345093    Uiso  ? C
   H296       1.0     0.434932     0.837725     0.363666    Uiso  ? H
   C496       1.0     0.462180     0.797304     0.345284    Uiso  ? C
   C497       1.0     0.390955     0.145753     0.350709    Uiso  ? C
   C498       1.0     0.403814     0.169026     0.339563    Uiso  ? C
   C499       1.0     0.393491     0.179811     0.316860    Uiso  ? C
   H297       1.0     0.375761     0.173321     0.307426    Uiso  ? H
   C500       1.0     0.404429     0.202015     0.305235    Uiso  ? C
   H298       1.0     0.397277     0.211218     0.287270    Uiso  ? H
   C501       1.0     0.427204     0.211627     0.315550    Uiso  ? C
   H299       1.0     0.433873     0.229404     0.306382    Uiso  ? H
   C502       1.0     0.439685     0.200682     0.338173    Uiso  ? C
   C503       1.0     0.426698     0.179936     0.350334    Uiso  ? C
   H300       1.0     0.434165     0.172153     0.368929    Uiso  ? H
   C504       1.0     0.462114     0.213967     0.349703    Uiso  ? C
   C505       1.0     0.346528     0.145367     0.395076    Uiso  ? C
   C506       1.0     0.337846     0.170533     0.406193    Uiso  ? C
   C507       1.0     0.316410     0.183834     0.395508    Uiso  ? C
   H301       1.0     0.303850     0.174790     0.378925    Uiso  ? H
   C508       1.0     0.309066     0.208163     0.403793    Uiso  ? C
   H302       1.0     0.295494     0.219352     0.392637    Uiso  ? H
   C509       1.0     0.319439     0.217230     0.426295    Uiso  ? C
   H303       1.0     0.314969     0.235522     0.434115    Uiso  ? H
   C510       1.0     0.340482     0.204728     0.438543    Uiso  ? C
   C511       1.0     0.349531     0.180816     0.428684    Uiso  ? C
   H304       1.0     0.367671     0.171946     0.436120    Uiso  ? H
   C512       1.0     0.349226     0.214627     0.463609    Uiso  ? C
   C513       1.0     0.386435     0.749502     0.537315    Uiso  ? C
   C514       1.0     0.396175     0.743401     0.564701    Uiso  ? C
   C515       1.0     0.379304     0.729629     0.581631    Uiso  ? C
   H305       1.0     0.359307     0.725150     0.574993    Uiso  ? H
   C516       1.0     0.387560     0.725220     0.607259    Uiso  ? C
   H306       1.0     0.373852     0.719567     0.620825    Uiso  ? H
   C517       1.0     0.412120     0.732389     0.615236    Uiso  ? C
   H307       1.0     0.417878     0.727893     0.635590    Uiso  ? H
   C518       1.0     0.430396     0.744933     0.599128    Uiso  ? C
   C519       1.0     0.420953     0.752032     0.573175    Uiso  ? C
   H308       1.0     0.433563     0.761043     0.558597    Uiso  ? H
   C520       1.0     0.456266     0.751371     0.608793    Uiso  ? C
   C521       1.0     0.388679     0.750946     0.455073    Uiso  ? C
   C522       1.0     0.401861     0.738957     0.431631    Uiso  ? C
   C523       1.0     0.393906     0.714181     0.423245    Uiso  ? C
   H309       1.0     0.377001     0.706037     0.432279    Uiso  ? H
   C524       1.0     0.407393     0.700068     0.404299    Uiso  ? C
   H310       1.0     0.401918     0.681188     0.399609    Uiso  ? H
   C525       1.0     0.429929     0.710860     0.393421    Uiso  ? C
   H311       1.0     0.440049     0.700189     0.379336    Uiso  ? H
   C526       1.0     0.436388     0.737585     0.398749    Uiso  ? C
   C527       1.0     0.423531     0.750670     0.418920    Uiso  ? C
   H312       1.0     0.430844     0.768621     0.425470    Uiso  ? H
   C528       1.0     0.459217     0.750131     0.387327    Uiso  ? C
   C529       1.0     0.344159     0.795739     0.536807    Uiso  ? C
   C530       1.0     0.334221     0.808318     0.561431    Uiso  ? C
   C531       1.0     0.310162     0.799171     0.571033    Uiso  ? C
   H313       1.0     0.298959     0.784570     0.562379    Uiso  ? H
   C532       1.0     0.300445     0.810041     0.594698    Uiso  ? C
   H314       1.0     0.282739     0.801910     0.604182    Uiso  ? H
   C533       1.0     0.313344     0.830480     0.607244    Uiso  ? C
   H315       1.0     0.303717     0.840226     0.624481    Uiso  ? H
   C534       1.0     0.336454     0.841324     0.596510    Uiso  ? C
   C535       1.0     0.346275     0.830795     0.572772    Uiso  ? C
   H316       1.0     0.363457     0.839126     0.563475    Uiso  ? H
   C536       1.0     0.350359     0.862057     0.611400    Uiso  ? C
   C537       1.0     0.536691     0.749854     0.395082    Uiso  ? C
   C538       1.0     0.557039     0.736129     0.409621    Uiso  ? C
   C539       1.0     0.567872     0.713558     0.399884    Uiso  ? C
   H317       1.0     0.561026     0.704012     0.381586    Uiso  ? H
   C540       1.0     0.588295     0.701951     0.411332    Uiso  ? C
   H318       1.0     0.596247     0.682952     0.405095    Uiso  ? H
   C541       1.0     0.599253     0.712896     0.434802    Uiso  ? C
   H319       1.0     0.616305     0.702081     0.442979    Uiso  ? H
   C542       1.0     0.589068     0.735969     0.445432    Uiso  ? C
   C543       1.0     0.567628     0.746944     0.433441    Uiso  ? C
   H320       1.0     0.561759     0.765010     0.439259    Uiso  ? H
   C544       1.0     0.604031     0.748830     0.466695    Uiso  ? C
   C545       1.0     0.543569     0.786220     0.344303    Uiso  ? C
   C546       1.0     0.570151     0.794972     0.335915    Uiso  ? C
   C547       1.0     0.586913     0.777918     0.322614    Uiso  ? C
   H321       1.0     0.581710     0.756494     0.318815    Uiso  ? H
   C548       1.0     0.610706     0.786049     0.313889    Uiso  ? C
   H322       1.0     0.623260     0.771317     0.304290    Uiso  ? H
   C549       1.0     0.618592     0.811362     0.319068    Uiso  ? C
   H323       1.0     0.638437     0.815596     0.317557    Uiso  ? H
   C550       1.0     0.602953     0.828815     0.331779    Uiso  ? C
   C551       1.0     0.578146     0.820597     0.340690    Uiso  ? C
   H324       1.0     0.564917     0.834904     0.349209    Uiso  ? H
   C552       1.0     0.613272     0.855538     0.339803    Uiso  ? C
   C553       1.0     0.392163     0.864921     0.659720    Uiso  ? C
   C554       1.0     0.403596     0.840357     0.669071    Uiso  ? C
   C555       1.0     0.390884     0.826625     0.688973    Uiso  ? C
   H325       1.0     0.372443     0.836212     0.696376    Uiso  ? H
   C556       1.0     0.398749     0.801581     0.697172    Uiso  ? C
   H326       1.0     0.389370     0.793763     0.714279    Uiso  ? H
   C557       1.0     0.421751     0.789981     0.686972    Uiso  ? C
   H327       1.0     0.425662     0.770624     0.692086    Uiso  ? H
   C558       1.0     0.436028     0.804018     0.668302    Uiso  ? C
   C559       1.0     0.427276     0.829298     0.660580    Uiso  ? C
   H328       1.0     0.436771     0.839998     0.645103    Uiso  ? H
   C560       1.0     0.458149     0.791706     0.654355    Uiso  ? C
   C561       1.0     0.344807     0.139242     0.609694    Uiso  ? C
   C562       1.0     0.332874     0.160989     0.596016    Uiso  ? C
   C563       1.0     0.306887     0.168070     0.600606    Uiso  ? C
   H329       1.0     0.296059     0.157104     0.615565    Uiso  ? H
   C564       1.0     0.296014     0.188130     0.587827    Uiso  ? C
   H330       1.0     0.276559     0.194562     0.591969    Uiso  ? H
   C565       1.0     0.311329     0.203799     0.570870    Uiso  ? C
   H331       1.0     0.302445     0.220847     0.561357    Uiso  ? H
   C566       1.0     0.335500     0.195948     0.562982    Uiso  ? C
   C567       1.0     0.345272     0.173666     0.575073    Uiso  ? C
   H332       1.0     0.364037     0.166658     0.568242    Uiso  ? H
   C568       1.0     0.348827     0.209842     0.540957    Uiso  ? C
   C569       1.0     0.393088     0.261504     0.465593    Uiso  ? C
   C570       1.0     0.407133     0.274798     0.443754    Uiso  ? C
   C571       1.0     0.402634     0.300195     0.436618    Uiso  ? C
   H333       1.0     0.387791     0.312621     0.447036    Uiso  ? H
   C572       1.0     0.414794     0.312423     0.415231    Uiso  ? C
   H334       1.0     0.410165     0.333256     0.411945    Uiso  ? H
   C573       1.0     0.433861     0.299007     0.402313    Uiso  ? C
   H335       1.0     0.444307     0.310578     0.386844    Uiso  ? H
   C574       1.0     0.440816     0.273289     0.409921    Uiso  ? C
   C575       1.0     0.427618     0.261523     0.431218    Uiso  ? C
   H336       1.0     0.433626     0.243968     0.439039    Uiso  ? H
   C576       1.0     0.460298     0.259413     0.393589    Uiso  ? C
   O271       1.0     0.371132     0.867517     0.393556    Uiso  ? O
   O272       1.0     0.333466     0.881498     0.377317    Uiso  ? O
   O273       1.0     0.394896     0.870128     0.370298    Uiso  ? O
   O274       1.0     0.377874     0.882757     0.331977    Uiso  ? O
   O275       1.0     0.404954     0.129019     0.362562    Uiso  ? O
   O276       1.0     0.366632     0.141437     0.346816    Uiso  ? O
   O277       1.0     0.360165     0.128706     0.407581    Uiso  ? O
   O278       1.0     0.344050     0.141837     0.370467    Uiso  ? O
   O279       1.0     0.401962     0.761084     0.521656    Uiso  ? O
   O280       1.0     0.362429     0.748766     0.531313    Uiso  ? O
   O281       1.0     0.390600     0.775029     0.459391    Uiso  ? O
   O282       1.0     0.374395     0.736979     0.470298    Uiso  ? O
   O283       1.0     0.365199     0.794014     0.462677    Uiso  ? O
   O284       1.0     0.327017     0.777912     0.470582    Uiso  ? O
   O285       1.0     0.358256     0.808633     0.521031    Uiso  ? O
   O286       1.0     0.340552     0.770702     0.531588    Uiso  ? O
   O287       1.0     0.522820     0.768471     0.405741    Uiso  ? O
   O288       1.0     0.533221     0.743684     0.371828    Uiso  ? O
   O289       1.0     0.526814     0.802422     0.354182    Uiso  ? O
   O290       1.0     0.538449     0.762330     0.346775    Uiso  ? O
   O291       1.0     0.465119     0.799192     0.370395    Uiso  ? O
   O292       1.0     0.477358     0.782173     0.331738    Uiso  ? O
   O293       1.0     0.464405     0.774476     0.391718    Uiso  ? O
   O294       1.0     0.474475     0.737597     0.371318    Uiso  ? O
   O295       1.0     0.407090     0.881669     0.648815    Uiso  ? O
   O296       1.0     0.367897     0.868385     0.660167    Uiso  ? O
   O297       1.0     0.364789     0.878428     0.599695    Uiso  ? O
   O298       1.0     0.345790     0.864039     0.635742    Uiso  ? O
   O299       1.0     0.369766     0.137152     0.609745    Uiso  ? O
   O300       1.0     0.331035     0.122129     0.620116    Uiso  ? O
   O301       1.0     0.393405     0.141383     0.629411    Uiso  ? O
   O302       1.0     0.374181     0.128000     0.665707    Uiso  ? O
   O303       1.0     0.365485     0.198110     0.527085    Uiso  ? O
   O304       1.0     0.343999     0.233989     0.537710    Uiso  ? O
   O305       1.0     0.373540     0.214486     0.467259    Uiso  ? O
   O306       1.0     0.333875     0.227360     0.477759    Uiso  ? O
   O307       1.0     0.395628     0.236403     0.467181    Uiso  ? O
   O308       1.0     0.377969     0.274383     0.480233    Uiso  ? O
   O309       1.0     0.405120     0.246930     0.528905    Uiso  ? O
   O310       1.0     0.365631     0.257840     0.543045    Uiso  ? O
   O311       1.0     0.532329     0.791482     0.629559    Uiso  ? O
   O312       1.0     0.522275     0.774909     0.667880    Uiso  ? O
   O313       1.0     0.533281     0.771103     0.604053    Uiso  ? O
   O314       1.0     0.520062     0.732113     0.617185    Uiso  ? O
   O315       1.0     0.470936     0.768084     0.596467    Uiso  ? O
   O316       1.0     0.461763     0.746346     0.632154    Uiso  ? O
   O317       1.0     0.473513     0.806671     0.640702    Uiso  ? O
   O318       1.0     0.461690     0.767385     0.656629    Uiso  ? O
   O319       1.0     0.417175     0.103213     0.417814    Uiso  ? O
   O320       1.0     0.417815     0.814255     0.500102    Uiso  ? O
   O321       1.0     0.506286     0.829390     0.405615    Uiso  ? O
   O322       1.0     0.420235     0.899766     0.588767    Uiso  ? O
   O323       1.0     0.428181     0.200101     0.504464    Uiso  ? O
   O324       1.0     0.492843     0.822355     0.584969    Uiso  ? O
   Zn61       1.0     0.388953     0.104700     0.390873    Uiso  ? Zn
   Zn62       1.0     0.345303     0.105734     0.347355    Uiso  ? Zn
   Zn63       1.0     0.385804     0.789831     0.497336    Uiso  ? Zn
   Zn64       1.0     0.344451     0.748782     0.495076    Uiso  ? Zn
   Zn65       1.0     0.501805     0.795359     0.385033    Uiso  ? Zn
   Zn66       1.0     0.501186     0.749951     0.343238    Uiso  ? Zn
   Zn67       1.0     0.390583     0.104057     0.617485    Uiso  ? Zn
   Zn68       1.0     0.344791     0.101698     0.653755    Uiso  ? Zn
   Zn69       1.0     0.392956     0.218107     0.503940    Uiso  ? Zn
   Zn70       1.0     0.348794     0.257812     0.503386    Uiso  ? Zn
   Zn71       1.0     0.496315     0.791935     0.610753    Uiso  ? Zn
   Zn72       1.0     0.498476     0.745714     0.650717    Uiso  ? Zn
   H337       1.0     0.414771     0.833004     0.506374    Uiso  ? H
   H338       1.0     0.434202     0.807033     0.497048    Uiso  ? H
   H339       1.0     0.575045     0.177075     0.479811    Uiso  ? H
   H340       1.0     0.566371     0.181573     0.509856    Uiso  ? H
   H341       1.0     0.520288     0.193544     0.435822    Uiso  ? H
   H342       1.0     0.494250     0.176533     0.426009    Uiso  ? H
   H343       1.0     0.555704     0.900000     0.396927    Uiso  ? H
   H344       1.0     0.570873     0.891910     0.423854    Uiso  ? H
   H345       1.0     0.477159     0.829142     0.578386    Uiso  ? H
   H346       1.0     0.509478     0.830269     0.581070    Uiso  ? H
   H347       1.0     0.570556     0.123130     0.587250    Uiso  ? H
   H348       1.0     0.583732     0.101673     0.567027    Uiso  ? H
   H349       1.0     0.576351     0.821924     0.485029    Uiso  ? H
   H350       1.0     0.586341     0.834797     0.513973    Uiso  ? H
   H351       1.0     0.415254     0.891020     0.572449    Uiso  ? H
   H352       1.0     0.437928     0.895675     0.594050    Uiso  ? H
   H353       1.0     0.510029     0.170349     0.584597    Uiso  ? H
   H354       1.0     0.477975     0.175629     0.583939    Uiso  ? H
   H355       1.0     0.436238     0.199363     0.521360    Uiso  ? H
   H356       1.0     0.433433     0.188220     0.491529    Uiso  ? H
   H357       1.0     0.522954     0.837038     0.401788    Uiso  ? H
   H358       1.0     0.491507     0.840189     0.410059    Uiso  ? H
   H359       1.0     0.426110     0.117288     0.425061    Uiso  ? H
   H360       1.0     0.423122     0.885459     0.422577    Uiso  ? H
   C577       1.0     0.661580     0.407279     0.130017    Uiso  ? C
   C578       1.0     0.676627     0.424489     0.147762    Uiso  ? C
   C579       1.0     0.703543     0.424058     0.148329    Uiso  ? C
   H361       1.0     0.713936     0.410039     0.135429    Uiso  ? H
   C580       1.0     0.716665     0.440848     0.164882    Uiso  ? C
   H362       1.0     0.737328     0.439487     0.167042    Uiso  ? H
   C581       1.0     0.703765     0.456895     0.182963    Uiso  ? C
   H363       1.0     0.714126     0.467843     0.198049    Uiso  ? H
   C582       1.0     0.676567     0.457927     0.182213    Uiso  ? C
   C583       1.0     0.663278     0.443396     0.162793    Uiso  ? C
   H364       1.0     0.642619     0.445169     0.162623    Uiso  ? H
   C584       1.0     0.661002     0.475489     0.199863    Uiso  ? C
   C585       1.0     0.605935     0.347227     0.139720    Uiso  ? C
   C586       1.0     0.592794     0.334311     0.162814    Uiso  ? C
   C587       1.0     0.603578     0.312885     0.173827    Uiso  ? C
   H365       1.0     0.621813     0.304612     0.166843    Uiso  ? H
   C588       1.0     0.593839     0.302882     0.197574    Uiso  ? C
   H366       1.0     0.604238     0.286905     0.208395    Uiso  ? H
   C589       1.0     0.571487     0.313585     0.208826    Uiso  ? C
   H367       1.0     0.562768     0.304189     0.225379    Uiso  ? H
   C590       1.0     0.558439     0.334701     0.197125    Uiso  ? C
   C591       1.0     0.569812     0.344165     0.173870    Uiso  ? C
   H368       1.0     0.561977     0.360929     0.165192    Uiso  ? H
   C592       1.0     0.537077     0.349230     0.209537    Uiso  ? C
   C593       1.0     0.613229     0.354112     0.856852    Uiso  ? C
   C594       1.0     0.602102     0.343339     0.832430    Uiso  ? C
   C595       1.0     0.613009     0.321302     0.820833    Uiso  ? C
   H369       1.0     0.630832     0.313383     0.829471    Uiso  ? H
   C596       1.0     0.603745     0.311708     0.797546    Uiso  ? C
   H370       1.0     0.615399     0.298675     0.785523    Uiso  ? H
   C597       1.0     0.580628     0.321799     0.787402    Uiso  ? C
   H371       1.0     0.573275     0.312615     0.770169    Uiso  ? H
   C598       1.0     0.567572     0.342066     0.800238    Uiso  ? C
   C599       1.0     0.578253     0.353907     0.822826    Uiso  ? C
   H372       1.0     0.568508     0.370948     0.831716    Uiso  ? H
   C600       1.0     0.542973     0.353557     0.788948    Uiso  ? C
   C601       1.0     0.653541     0.399646     0.863404    Uiso  ? C
   C602       1.0     0.666155     0.413971     0.842041    Uiso  ? C
   C603       1.0     0.691766     0.408677     0.835564    Uiso  ? C
   H373       1.0     0.702386     0.396532     0.848133    Uiso  ? H
   C604       1.0     0.704997     0.420442     0.814736    Uiso  ? C
   H374       1.0     0.724854     0.415383     0.808357    Uiso  ? H
   C605       1.0     0.689126     0.434334     0.797787    Uiso  ? C
   H375       1.0     0.697600     0.440563     0.778699    Uiso  ? H
   C606       1.0     0.663990     0.442896     0.804672    Uiso  ? C
   C607       1.0     0.652116     0.432485     0.827447    Uiso  ? C
   H376       1.0     0.632592     0.439034     0.832111    Uiso  ? H
   C608       1.0     0.650689     0.463796     0.790265    Uiso  ? C
   C609       1.0     0.616237     0.548235     0.253654    Uiso  ? C
   C610       1.0     0.602809     0.571582     0.263870    Uiso  ? C
   C611       1.0     0.610371     0.581410     0.288097    Uiso  ? C
   H377       1.0     0.627023     0.574339     0.296213    Uiso  ? H
   C612       1.0     0.595420     0.600559     0.300694    Uiso  ? C
   H378       1.0     0.603399     0.610084     0.319698    Uiso  ? H
   C613       1.0     0.573375     0.610670     0.288841    Uiso  ? C
   H379       1.0     0.561364     0.623745     0.298479    Uiso  ? H
   C614       1.0     0.566889     0.603565     0.263505    Uiso  ? C
   C615       1.0     0.580491     0.583297     0.252553    Uiso  ? C
   H380       1.0     0.575181     0.575181     0.233058    Uiso  ? H
   C616       1.0     0.545984     0.616616     0.249349    Uiso  ? C
   C617       1.0     0.607364     0.463045     0.260995    Uiso  ? C
   C618       1.0     0.595766     0.439345     0.271819    Uiso  ? C
   C619       1.0     0.605711     0.428386     0.294974    Uiso  ? C
   H381       1.0     0.622238     0.437797     0.303984    Uiso  ? H
   C620       1.0     0.594756     0.406508     0.305487    Uiso  ? C
   H382       1.0     0.601419     0.399130     0.324088    Uiso  ? H
   C621       1.0     0.573367     0.394803     0.293629    Uiso  ? C
   H383       1.0     0.565143     0.378709     0.303180    Uiso  ? H
   C622       1.0     0.564286     0.405256     0.269309    Uiso  ? C
   C623       1.0     0.576045     0.426873     0.257898    Uiso  ? C
   H384       1.0     0.566293     0.434652     0.240286    Uiso  ? H
   C624       1.0     0.542759     0.392829     0.255556    Uiso  ? C
   C625       1.0     0.655630     0.536263     0.208482    Uiso  ? C
   C626       1.0     0.669670     0.556058     0.191353    Uiso  ? C
   C627       1.0     0.697504     0.558205     0.192112    Uiso  ? C
   H385       1.0     0.709780     0.546181     0.205082    Uiso  ? H
   C628       1.0     0.710621     0.575300     0.175150    Uiso  ? C
   H386       1.0     0.731885     0.576069     0.177474    Uiso  ? H
   C629       1.0     0.696128     0.588837     0.156635    Uiso  ? C
   H387       1.0     0.708485     0.600201     0.145386    Uiso  ? H
   C630       1.0     0.668249     0.588856     0.155480    Uiso  ? C
   C631       1.0     0.655466     0.570844     0.172360    Uiso  ? C
   H388       1.0     0.634770     0.570280     0.172956    Uiso  ? H
   C632       1.0     0.656103     0.606765     0.136584    Uiso  ? C
   C633       1.0     0.460163     0.397628     0.259064    Uiso  ? C
   C634       1.0     0.439072     0.413524     0.271858    Uiso  ? C
   C635       1.0     0.432713     0.410029     0.298218    Uiso  ? C
   H389       1.0     0.440921     0.396834     0.312949    Uiso  ? H
   C636       1.0     0.411224     0.421935     0.308676    Uiso  ? C
   H390       1.0     0.406913     0.417286     0.328281    Uiso  ? H
   C637       1.0     0.397995     0.441401     0.296124    Uiso  ? C
   H391       1.0     0.379947     0.449934     0.304767    Uiso  ? H
   C638       1.0     0.406200     0.447369     0.271001    Uiso  ? C
   C639       1.0     0.424716     0.431288     0.257373    Uiso  ? C
   H392       1.0     0.429322     0.433455     0.236698    Uiso  ? H
   C640       1.0     0.390752     0.466418     0.256007    Uiso  ? C
   C641       1.0     0.461139     0.348642     0.213649    Uiso  ? C
   C642       1.0     0.439339     0.336491     0.200209    Uiso  ? C
   C643       1.0     0.425826     0.316313     0.213684    Uiso  ? C
   H393       1.0     0.432489     0.310377     0.232638    Uiso  ? H
   C644       1.0     0.405258     0.304000     0.202000    Uiso  ? C
   H394       1.0     0.395800     0.288506     0.211647    Uiso  ? H
   C645       1.0     0.395218     0.313471     0.179720    Uiso  ? C
   H395       1.0     0.378602     0.303139     0.171837    Uiso  ? H
   C646       1.0     0.406202     0.334683     0.165950    Uiso  ? C
   C647       1.0     0.429230     0.345358     0.176321    Uiso  ? C
   H396       1.0     0.436495     0.362517     0.167075    Uiso  ? H
   C648       1.0     0.393362     0.344718     0.142821    Uiso  ? C
   C649       1.0     0.610615     0.657781     0.138075    Uiso  ? C
   C650       1.0     0.595484     0.669816     0.158755    Uiso  ? C
   C651       1.0     0.603017     0.694639     0.168459    Uiso  ? C
   H397       1.0     0.617527     0.705972     0.158705    Uiso  ? H
   C652       1.0     0.591085     0.705174     0.189661    Uiso  ? C
   H398       1.0     0.598042     0.723665     0.197047    Uiso  ? H
   C653       1.0     0.569731     0.692523     0.201719    Uiso  ? C
   H399       1.0     0.561512     0.703891     0.216495    Uiso  ? H
   C654       1.0     0.558775     0.669380     0.189804    Uiso  ? C
   C655       1.0     0.572699     0.657880     0.168769    Uiso  ? C
   H400       1.0     0.565826     0.639193     0.161850    Uiso  ? H
   C656       1.0     0.536874     0.656204     0.201790    Uiso  ? C
   C657       1.0     0.655877     0.616402     0.855174    Uiso  ? C
   C658       1.0     0.666112     0.604441     0.831118    Uiso  ? C
   C659       1.0     0.686247     0.616303     0.815618    Uiso  ? C
   H401       1.0     0.695581     0.634698     0.821923    Uiso  ? H
   C660       1.0     0.696745     0.605571     0.792228    Uiso  ? C
   H402       1.0     0.711956     0.615184     0.781796    Uiso  ? H
   C661       1.0     0.686411     0.582538     0.783448    Uiso  ? C
   H403       1.0     0.689689     0.575950     0.762139    Uiso  ? H
   C662       1.0     0.666702     0.569587     0.797841    Uiso  ? C
   C663       1.0     0.656480     0.580881     0.821265    Uiso  ? C
   H404       1.0     0.640544     0.571411     0.830982    Uiso  ? H
   C664       1.0     0.655312     0.545107     0.786600    Uiso  ? C
   C665       1.0     0.605990     0.466547     0.744162    Uiso  ? C
   C666       1.0     0.591931     0.443699     0.732828    Uiso  ? C
   C667       1.0     0.603064     0.431543     0.711324    Uiso  ? C
   H405       1.0     0.621868     0.438699     0.701554    Uiso  ? H
   C668       1.0     0.591614     0.409039     0.700763    Uiso  ? C
   H406       1.0     0.600426     0.398175     0.684198    Uiso  ? H
   C669       1.0     0.570134     0.398833     0.712375    Uiso  ? C
   H407       1.0     0.562283     0.381855     0.704717    Uiso  ? H
   C670       1.0     0.557267     0.410382     0.733536    Uiso  ? C
   C671       1.0     0.569540     0.432405     0.745151    Uiso  ? C
   H408       1.0     0.561378     0.442545     0.761845    Uiso  ? H
   C672       1.0     0.535411     0.396676     0.746376    Uiso  ? C
   O325       1.0     0.637964     0.412470     0.125924    Uiso  ? O
   O326       1.0     0.671667     0.387424     0.119901    Uiso  ? O
   O327       1.0     0.592767     0.360066     0.123567    Uiso  ? O
   O328       1.0     0.630412     0.342816     0.135958    Uiso  ? O
   O329       1.0     0.605797     0.376766     0.863879    Uiso  ? O
   O330       1.0     0.630314     0.340988     0.870358    Uiso  ? O
   O331       1.0     0.628062     0.399592     0.866252    Uiso  ? O
   O332       1.0     0.666334     0.385495     0.878977    Uiso  ? O
   O333       1.0     0.610373     0.539458     0.230351    Uiso  ? O
   O334       1.0     0.631239     0.534408     0.268123    Uiso  ? O
   O335       1.0     0.593862     0.477994     0.247888    Uiso  ? O
   O336       1.0     0.631498     0.466112     0.261798    Uiso  ? O
   O337       1.0     0.636512     0.477887     0.194778    Uiso  ? O
   O338       1.0     0.671399     0.484961     0.221504    Uiso  ? O
   O339       1.0     0.630900     0.535882     0.208954    Uiso  ? O
   O340       1.0     0.669131     0.521244     0.222736    Uiso  ? O
   O341       1.0     0.463278     0.397266     0.234329    Uiso  ? O
   O342       1.0     0.475448     0.383297     0.272680    Uiso  ? O
   O343       1.0     0.466712     0.372961     0.209910    Uiso  ? O
   O344       1.0     0.476390     0.335849     0.229516    Uiso  ? O
   O345       1.0     0.523009     0.363967     0.196250    Uiso  ? O
   O346       1.0     0.533215     0.346363     0.234081    Uiso  ? O
   O347       1.0     0.527677     0.407600     0.242356    Uiso  ? O
   O348       1.0     0.538062     0.368038     0.258436    Uiso  ? O
   O349       1.0     0.610876     0.633365     0.135886    Uiso  ? O
   O350       1.0     0.625450     0.671847     0.123309    Uiso  ? O
   O351       1.0     0.630996     0.607979     0.135711    Uiso  ? O
   O352       1.0     0.669349     0.620247     0.120740    Uiso  ? O
   O353       1.0     0.643407     0.602258     0.870766    Uiso  ? O
   O354       1.0     0.657465     0.640717     0.858995    Uiso  ? O
   O355       1.0     0.593658     0.642401     0.876939    Uiso  ? O
   O356       1.0     0.629617     0.662700     0.865390    Uiso  ? O
   O357       1.0     0.630674     0.540486     0.790442    Uiso  ? O
   O358       1.0     0.669117     0.529939     0.772437    Uiso  ? O
   O359       1.0     0.634457     0.478347     0.802527    Uiso  ? O
   O360       1.0     0.655238     0.466292     0.766365    Uiso  ? O
   O361       1.0     0.593502     0.483998     0.755587    Uiso  ? O
   O362       1.0     0.631247     0.468059     0.741402    Uiso  ? O
   O363       1.0     0.607395     0.538539     0.766307    Uiso  ? O
   O364       1.0     0.624319     0.524508     0.728853    Uiso  ? O
   O365       1.0     0.477068     0.635282     0.192043    Uiso  ? O
   O366       1.0     0.487124     0.671140     0.212239    Uiso  ? O
   O367       1.0     0.476822     0.598128     0.239964    Uiso  ? O
   O368       1.0     0.465670     0.636232     0.255613    Uiso  ? O
   O369       1.0     0.540836     0.610212     0.225458    Uiso  ? O
   O370       1.0     0.531478     0.632779     0.261369    Uiso  ? O
   O371       1.0     0.536045     0.631126     0.199493    Uiso  ? O
   O372       1.0     0.519410     0.669682     0.213760    Uiso  ? O
   O373       1.0     0.578327     0.416000     0.108348    Uiso  ? O
   O374       1.0     0.572144     0.488751     0.210582    Uiso  ? O
   O375       1.0     0.504647     0.424051     0.187429    Uiso  ? O
   O376       1.0     0.588893     0.580823     0.898941    Uiso  ? O
   O377       1.0     0.581402     0.504639     0.814905    Uiso  ? O
   O378       1.0     0.504941     0.572423     0.187478    Uiso  ? O
   Zn73       1.0     0.610918     0.391459     0.103415    Uiso  ? Zn
   Zn74       1.0     0.654913     0.351391     0.104741    Uiso  ? Zn
   Zn75       1.0     0.611164     0.498385     0.218207    Uiso  ? Zn
   Zn76       1.0     0.654866     0.500368     0.256744    Uiso  ? Zn
   Zn77       1.0     0.502344     0.394860     0.215554    Uiso  ? Zn
   Zn78       1.0     0.499844     0.351603     0.257787    Uiso  ? Zn
   Zn79       1.0     0.612645     0.613903     0.898345    Uiso  ? Zn
   Zn80       1.0     0.655982     0.656593     0.897843    Uiso  ? Zn
   Zn81       1.0     0.608501     0.505558     0.786582    Uiso  ? Zn
   Zn82       1.0     0.654175     0.500690     0.744110    Uiso  ? Zn
   Zn83       1.0     0.502054     0.609465     0.208652    Uiso  ? Zn
   Zn84       1.0     0.500582     0.657886     0.250057    Uiso  ? Zn
   C673       1.0     0.349549     0.613140     0.859554    Uiso  ? C
   C674       1.0     0.336246     0.601589     0.837271    Uiso  ? C
   C675       1.0     0.310909     0.607824     0.830054    Uiso  ? C
   H409       1.0     0.299878     0.621629     0.840970    Uiso  ? H
   C676       1.0     0.298987     0.595582     0.809735    Uiso  ? C
   H410       1.0     0.280102     0.603409     0.805451    Uiso  ? H
   C677       1.0     0.312103     0.577387     0.794846    Uiso  ? C
   H411       1.0     0.300938     0.569494     0.779108    Uiso  ? H
   C678       1.0     0.336989     0.568292     0.802470    Uiso  ? C
   C679       1.0     0.348704     0.580885     0.824549    Uiso  ? C
   H412       1.0     0.367549     0.574919     0.829849    Uiso  ? H
   C680       1.0     0.349650     0.543709     0.791718    Uiso  ? C
   C681       1.0     0.398313     0.654729     0.863685    Uiso  ? C
   C682       1.0     0.411287     0.667911     0.841762    Uiso  ? C
   C683       1.0     0.402655     0.692726     0.833880    Uiso  ? C
   H413       1.0     0.389711     0.704919     0.845755    Uiso  ? H
   C684       1.0     0.411732     0.701645     0.810547    Uiso  ? C
   H414       1.0     0.403193     0.719573     0.802138    Uiso  ? H
   C685       1.0     0.430647     0.689576     0.796060    Uiso  ? C
   H415       1.0     0.435210     0.697618     0.777038    Uiso  ? H
   C686       1.0     0.442029     0.666126     0.805994    Uiso  ? C
   C687       1.0     0.430760     0.654904     0.828161    Uiso  ? C
   H416       1.0     0.441028     0.638085     0.836156    Uiso  ? H
   C688       1.0     0.462275     0.652959     0.789915    Uiso  ? C
   C689       1.0     0.409655     0.659533     0.123680    Uiso  ? C
   C690       1.0     0.430663     0.672625     0.137514    Uiso  ? C
   C691       1.0     0.432240     0.699560     0.135119    Uiso  ? C
   H417       1.0     0.422004     0.708367     0.120405    Uiso  ? H
   C692       1.0     0.447604     0.714598     0.152451    Uiso  ? C
   H418       1.0     0.448844     0.735163     0.150592    Uiso  ? H
   C693       1.0     0.461900     0.701888     0.171641    Uiso  ? C
   H419       1.0     0.474502     0.711705     0.184633    Uiso  ? H
   C694       1.0     0.460525     0.674389     0.173529    Uiso  ? C
   C695       1.0     0.445924     0.660187     0.155897    Uiso  ? C
   H420       1.0     0.444525     0.639942     0.156654    Uiso  ? H
   C696       1.0     0.474118     0.659716     0.194280    Uiso  ? C
   C697       1.0     0.344737     0.616834     0.142812    Uiso  ? C
   C698       1.0     0.334909     0.605262     0.168010    Uiso  ? C
   C699       1.0     0.319640     0.620652     0.184145    Uiso  ? C
   H421       1.0     0.313394     0.639968     0.178514    Uiso  ? H
   C700       1.0     0.310438     0.610257     0.206759    Uiso  ? C
   H422       1.0     0.295783     0.622100     0.217892    Uiso  ? H
   C701       1.0     0.317847     0.585522     0.216102    Uiso  ? C
   H423       1.0     0.308428     0.578397     0.233855    Uiso  ? H
   C702       1.0     0.334566     0.569568     0.200544    Uiso  ? C
   C703       1.0     0.343752     0.580058     0.176525    Uiso  ? C
   H424       1.0     0.357555     0.570292     0.165385    Uiso  ? H
   C704       1.0     0.344180     0.545192     0.211734    Uiso  ? C
   C705       1.0     0.401852     0.473274     0.742200    Uiso  ? C
   C706       1.0     0.418102     0.454390     0.726400    Uiso  ? C
   C707       1.0     0.410681     0.446277     0.700691    Uiso  ? C
   H425       1.0     0.394200     0.453018     0.690051    Uiso  ? H
   C708       1.0     0.425310     0.428255     0.687542    Uiso  ? C
   H426       1.0     0.419125     0.424033     0.668281    Uiso  ? H
   C709       1.0     0.445362     0.414440     0.699315    Uiso  ? C
   H427       1.0     0.455071     0.399855     0.688459    Uiso  ? H
   C710       1.0     0.452089     0.419558     0.725238    Uiso  ? C
   C711       1.0     0.439997     0.442018     0.737560    Uiso  ? C
   H428       1.0     0.444739     0.446557     0.756772    Uiso  ? H
   C712       1.0     0.470842     0.402800     0.739794    Uiso  ? C
   C713       1.0     0.391437     0.535927     0.746130    Uiso  ? C
   C714       1.0     0.403629     0.558289     0.733503    Uiso  ? C
   C715       1.0     0.390515     0.570844     0.713821    Uiso  ? C
   H429       1.0     0.371512     0.564697     0.707450    Uiso  ? H
   C716       1.0     0.400302     0.593625     0.702838    Uiso  ? C
   H430       1.0     0.391490     0.602681     0.686168    Uiso  ? H
   C717       1.0     0.423449     0.604602     0.712188    Uiso  ? C
   H431       1.0     0.431035     0.622939     0.704637    Uiso  ? H
   C718       1.0     0.436806     0.593826     0.733225    Uiso  ? C
   C719       1.0     0.427151     0.569420     0.743454    Uiso  ? C
   H432       1.0     0.439777     0.559054     0.757458    Uiso  ? H
   C720       1.0     0.459005     0.606150     0.744961    Uiso  ? C
   C721       1.0     0.342792     0.461330     0.795687    Uiso  ? C
   C722       1.0     0.330301     0.441054     0.811974    Uiso  ? C
   C723       1.0     0.304276     0.433311     0.807351    Uiso  ? C
   H433       1.0     0.293165     0.445179     0.793065    Uiso  ? H
   C724       1.0     0.292027     0.413561     0.821247    Uiso  ? C
   H434       1.0     0.270823     0.409866     0.817724    Uiso  ? H
   C725       1.0     0.305479     0.400976     0.839977    Uiso  ? C
   H435       1.0     0.295168     0.387315     0.852498    Uiso  ? H
   C726       1.0     0.330836     0.408799     0.846670    Uiso  ? C
   C727       1.0     0.344258     0.427379     0.830326    Uiso  ? C
   H436       1.0     0.364391     0.431613     0.833805    Uiso  ? H
   C728       1.0     0.344529     0.394809     0.867545    Uiso  ? C
   C729       1.0     0.539598     0.608081     0.743207    Uiso  ? C
   C730       1.0     0.560477     0.593187     0.730268    Uiso  ? C
   C731       1.0     0.563908     0.597678     0.703703    Uiso  ? C
   H437       1.0     0.552118     0.611211     0.693236    Uiso  ? H
   C732       1.0     0.581652     0.583608     0.688932    Uiso  ? C
   H438       1.0     0.581955     0.585417     0.668966    Uiso  ? H
   C733       1.0     0.595940     0.564131     0.701338    Uiso  ? C
   H439       1.0     0.610759     0.553327     0.689855    Uiso  ? H
   C734       1.0     0.592819     0.558748     0.727786    Uiso  ? C
   C735       1.0     0.575113     0.574329     0.742397    Uiso  ? C
   H440       1.0     0.574309     0.572182     0.762601    Uiso  ? H
   C736       1.0     0.610152     0.540085     0.741854    Uiso  ? C
   C737       1.0     0.537665     0.653695     0.789216    Uiso  ? C
   C738       1.0     0.559297     0.666969     0.804481    Uiso  ? C
   C739       1.0     0.566180     0.692263     0.797427    Uiso  ? C
   H441       1.0     0.555509     0.703895     0.782670    Uiso  ? H
   C740       1.0     0.587881     0.705044     0.807582    Uiso  ? C
   H442       1.0     0.595204     0.723077     0.802262    Uiso  ? H
   C741       1.0     0.600140     0.693695     0.828267    Uiso  ? C
   H443       1.0     0.617186     0.702227     0.835473    Uiso  ? H
   C742       1.0     0.591978     0.669795     0.838439    Uiso  ? C
   C743       1.0     0.571309     0.656570     0.826234    Uiso  ? C
   H444       1.0     0.566124     0.636485     0.831046    Uiso  ? H
   C744       1.0     0.605213     0.658567     0.861592    Uiso  ? C
   C745       1.0     0.391681     0.348426     0.861738    Uiso  ? C
   C746       1.0     0.405350     0.334161     0.842239    Uiso  ? C
   C747       1.0     0.402278     0.307245     0.838944    Uiso  ? C
   H445       1.0     0.384646     0.298442     0.848013    Uiso  ? H
   C748       1.0     0.419096     0.292002     0.822592    Uiso  ? C
   H446       1.0     0.415877     0.271572     0.822964    Uiso  ? H
   C749       1.0     0.437768     0.304631     0.806889    Uiso  ? C
   H447       1.0     0.449957     0.292103     0.794686    Uiso  ? H
   C750       1.0     0.440567     0.332361     0.809484    Uiso  ? C
   C751       1.0     0.426042     0.346366     0.828722    Uiso  ? C
   H448       1.0     0.429563     0.367617     0.830340    Uiso  ? H
   C752       1.0     0.459494     0.346008     0.793582    Uiso  ? C
   C753       1.0     0.348982     0.392162     0.145269    Uiso  ? C
   C754       1.0     0.335991     0.405537     0.166545    Uiso  ? C
   C755       1.0     0.314114     0.394620     0.178380    Uiso  ? C
   H449       1.0     0.307914     0.374763     0.174253    Uiso  ? H
   C756       1.0     0.300334     0.409677     0.196771    Uiso  ? C
   H450       1.0     0.281560     0.403851     0.205431    Uiso  ? H
   C757       1.0     0.309584     0.432939     0.205714    Uiso  ? C
   H451       1.0     0.297591     0.441864     0.220515    Uiso  ? H
   C758       1.0     0.334258     0.442654     0.197450    Uiso  ? C
   C759       1.0     0.347051     0.429756     0.177431    Uiso  ? C
   H452       1.0     0.364983     0.439909     0.168297    Uiso  ? H
   C760       1.0     0.344071     0.466500     0.209254    Uiso  ? C
   C761       1.0     0.392010     0.543442     0.255569    Uiso  ? C
   C762       1.0     0.402350     0.567115     0.266200    Uiso  ? C
   C763       1.0     0.390483     0.580412     0.286246    Uiso  ? C
   H453       1.0     0.373278     0.573003     0.294175    Uiso  ? H
   C764       1.0     0.402811     0.602422     0.296145    Uiso  ? C
   H454       1.0     0.396438     0.610327     0.314103    Uiso  ? H
   C765       1.0     0.425491     0.612770     0.285507    Uiso  ? C
   H455       1.0     0.435148     0.630044     0.293576    Uiso  ? H
   C766       1.0     0.436302     0.601003     0.263060    Uiso  ? C
   C767       1.0     0.425715     0.577621     0.254355    Uiso  ? C
   H456       1.0     0.433807     0.567142     0.237223    Uiso  ? H
   C768       1.0     0.460348     0.612400     0.252033    Uiso  ? C
   O379       1.0     0.372781     0.607880     0.864346    Uiso  ? O
   O380       1.0     0.337879     0.630497     0.873324    Uiso  ? O
   O381       1.0     0.398529     0.629857     0.865516    Uiso  ? O
   O382       1.0     0.384311     0.668514     0.877793    Uiso  ? O
   O383       1.0     0.409525     0.634204     0.123081    Uiso  ? O
   O384       1.0     0.390462     0.672201     0.113496    Uiso  ? O
   O385       1.0     0.354958     0.602671     0.125240    Uiso  ? O
   O386       1.0     0.346775     0.641266     0.138952    Uiso  ? O
   O387       1.0     0.411034     0.487965     0.760590    Uiso  ? O
   O388       1.0     0.378193     0.474037     0.736902    Uiso  ? O
   O389       1.0     0.405272     0.520700     0.760251    Uiso  ? O
   O390       1.0     0.365931     0.532952     0.745307    Uiso  ? O
   O391       1.0     0.368086     0.533857     0.803987    Uiso  ? O
   O392       1.0     0.342405     0.532723     0.770128    Uiso  ? O
   O393       1.0     0.367025     0.466247     0.798558    Uiso  ? O
   O394       1.0     0.330268     0.473731     0.779102    Uiso  ? O
   O395       1.0     0.537176     0.607028     0.767675    Uiso  ? O
   O396       1.0     0.522549     0.621195     0.730745    Uiso  ? O
   O397       1.0     0.534583     0.628759     0.791640    Uiso  ? O
   O398       1.0     0.522082     0.666451     0.774545    Uiso  ? O
   O399       1.0     0.478438     0.638568     0.800596    Uiso  ? O
   O400       1.0     0.465365     0.658591     0.766661    Uiso  ? O
   O401       1.0     0.476384     0.591957     0.756013    Uiso  ? O
   O402       1.0     0.462464     0.630766     0.741866    Uiso  ? O
   O403       1.0     0.396469     0.373159     0.864399    Uiso  ? O
   O404       1.0     0.375723     0.337657     0.877161    Uiso  ? O
   O405       1.0     0.369591     0.397221     0.869384    Uiso  ? O
   O406       1.0     0.332641     0.379273     0.882623    Uiso  ? O
   O407       1.0     0.362531     0.403576     0.127798    Uiso  ? O
   O408       1.0     0.347818     0.367572     0.143490    Uiso  ? O
   O409       1.0     0.407356     0.355437     0.125195    Uiso  ? O
   O410       1.0     0.369026     0.344712     0.140750    Uiso  ? O
   O411       1.0     0.368910     0.469445     0.208663    Uiso  ? O
   O412       1.0     0.330274     0.481961     0.223343    Uiso  ? O
   O413       1.0     0.358563     0.530838     0.198040    Uiso  ? O
   O414       1.0     0.341482     0.540215     0.235780    Uiso  ? O
   O415       1.0     0.405801     0.528479     0.241373    Uiso  ? O
   O416       1.0     0.367197     0.539501     0.257391    Uiso  ? O
   O417       1.0     0.392720     0.467932     0.231422    Uiso  ? O
   O418       1.0     0.376001     0.482078     0.267418    Uiso  ? O
   O419       1.0     0.528790     0.366667     0.802753    Uiso  ? O
   O420       1.0     0.536240     0.348774     0.766003    Uiso  ? O
   O421       1.0     0.519544     0.408661     0.760705    Uiso  ? O
   O422       1.0     0.532397     0.371703     0.743816    Uiso  ? O
   O423       1.0     0.485218     0.412850     0.757354    Uiso  ? O
   O424       1.0     0.472263     0.378983     0.735504    Uiso  ? O
   O425       1.0     0.460613     0.370337     0.795342    Uiso  ? O
   O426       1.0     0.477015     0.333211     0.780741    Uiso  ? O
   O427       1.0     0.409885     0.574103     0.106521    Uiso  ? O
   O428       1.0     0.415781     0.495576     0.821138    Uiso  ? O
   O429       1.0     0.491461     0.578434     0.809864    Uiso  ? O
   O430       1.0     0.421008     0.414884     0.113589    Uiso  ? O
   O431       1.0     0.413889     0.505474     0.182565    Uiso  ? O
   O432       1.0     0.490415     0.411423     0.822254    Uiso  ? O
   Zn85       1.0     0.387120     0.609149     0.102751    Uiso  ? Zn
   Zn86       1.0     0.350524     0.656718     0.102197    Uiso  ? Zn
   Zn87       1.0     0.387906     0.499043     0.793045    Uiso  ? Zn
   Zn88       1.0     0.346140     0.497034     0.750658    Uiso  ? Zn
   Zn89       1.0     0.500695     0.610041     0.784383    Uiso  ? Zn
   Zn90       1.0     0.498161     0.651834     0.741513    Uiso  ? Zn
   Zn91       1.0     0.391856     0.386462     0.104047    Uiso  ? Zn
   Zn92       1.0     0.346660     0.349175     0.105684    Uiso  ? Zn
   Zn93       1.0     0.387823     0.506185     0.214347    Uiso  ? Zn
   Zn94       1.0     0.345046     0.503670     0.255054    Uiso  ? Zn
   Zn95       1.0     0.495844     0.391595     0.789966    Uiso  ? Zn
   Zn96       1.0     0.497489     0.349962     0.748316    Uiso  ? Zn
   H457       1.0     0.429742     0.506973     0.821623    Uiso  ? H
   H458       1.0     0.414162     0.481475     0.834262    Uiso  ? H
   H459       1.0     0.567261     0.472324     0.202546    Uiso  ? H
   H460       1.0     0.558232     0.501063     0.213218    Uiso  ? H
   H461       1.0     0.518791     0.560925     0.193680    Uiso  ? H
   H462       1.0     0.492975     0.568036     0.173477    Uiso  ? H
   H463       1.0     0.582689     0.574601     0.116642    Uiso  ? H
   H464       1.0     0.577406     0.579503     0.884054    Uiso  ? H
   H465       1.0     0.504627     0.408756     0.837223    Uiso  ? H
   H466       1.0     0.476277     0.423687     0.823100    Uiso  ? H
   H467       1.0     0.573614     0.427190     0.892946    Uiso  ? H
   H468       1.0     0.573639     0.421067     0.125837    Uiso  ? H
   H469       1.0     0.570801     0.489510     0.818109    Uiso  ? H
   H470       1.0     0.580125     0.521841     0.823421    Uiso  ? H
   H471       1.0     0.439872     0.412426     0.113460    Uiso  ? H
   H472       1.0     0.414537     0.430208     0.123100    Uiso  ? H
   H473       1.0     0.493201     0.423655     0.171961    Uiso  ? H
   H474       1.0     0.516597     0.438956     0.188133    Uiso  ? H
   H475       1.0     0.425946     0.490231     0.181932    Uiso  ? H
   H476       1.0     0.405492     0.513045     0.167038    Uiso  ? H
   H477       1.0     0.495949     0.578631     0.828500    Uiso  ? H
   H478       1.0     0.479353     0.566671     0.803017    Uiso  ? H
   H479       1.0     0.408236     0.562196     0.891420    Uiso  ? H
   H480       1.0     0.419034     0.568045     0.122439    Uiso  ? H
   N1         1.0     0.895659     0.683884     0.316798    Uiso  ? N
   C769       1.0     0.886958     0.708711     0.327477    Uiso  ? C
   C770       1.0     0.887863     0.731186     0.308483    Uiso  ? C
   N2         1.0     0.895452     0.720910     0.282063    Uiso  ? N
   C771       1.0     0.124651     0.709636     0.285544    Uiso  ? C
   C772       1.0     0.125032     0.688432     0.308418    Uiso  ? C
   C773       1.0     0.878905     0.677011     0.294653    Uiso  ? C
   C774       1.0     0.876746     0.700504     0.274910    Uiso  ? C
   H481       1.0     0.876748     0.709776     0.345650    Uiso  ? H
   H482       1.0     0.106002     0.744916     0.316753    Uiso  ? H
   H483       1.0     0.138242     0.725674     0.292113    Uiso  ? H
   H484       1.0     0.133311     0.670971     0.300584    Uiso  ? H
   H485       1.0     0.858500     0.671855     0.300458    Uiso  ? H
   H486       1.0     0.881015     0.693732     0.254278    Uiso  ? H
   H487       1.0     0.870044     0.742607     0.307859    Uiso  ? H
   H488       1.0     0.132318     0.701548     0.267403    Uiso  ? H
   H489       1.0     0.139128     0.693606     0.324744    Uiso  ? H
   H490       1.0     0.885599     0.659488     0.284099    Uiso  ? H
   H491       1.0     0.856412     0.709307     0.275045    Uiso  ? H
   N3         1.0     0.896543     0.278527     0.719511    Uiso  ? N
   C775       1.0     0.898512     0.269589     0.692761    Uiso  ? C
   C776       1.0     0.896443     0.289643     0.672478    Uiso  ? C
   N4         1.0     0.896617     0.315166     0.685284    Uiso  ? N
   C777       1.0     0.873359     0.318493     0.702319    Uiso  ? C
   C778       1.0     0.872695     0.294046     0.720755    Uiso  ? C
   C779       1.0     0.120991     0.296096     0.723871    Uiso  ? C
   C780       1.0     0.122044     0.318009     0.701920    Uiso  ? C
   H492       1.0     0.892809     0.249271     0.687914    Uiso  ? H
   H493       1.0     0.878068     0.287648     0.661787    Uiso  ? H
   H494       1.0     0.855446     0.320703     0.689822    Uiso  ? H
   H495       1.0     0.870273     0.301613     0.740261    Uiso  ? H
   H496       1.0     0.139446     0.284649     0.725516    Uiso  ? H
   H497       1.0     0.124682     0.337284     0.710514    Uiso  ? H
   H498       1.0     0.115020     0.286615     0.658634    Uiso  ? H
   H499       1.0     0.874912     0.337241     0.712412    Uiso  ? H
   H500       1.0     0.854494     0.280259     0.718797    Uiso  ? H
   H501       1.0     0.117563     0.304083     0.744453    Uiso  ? H
   H502       1.0     0.139823     0.313535     0.690281    Uiso  ? H
   N5         1.0     0.101707     0.684097     0.685163    Uiso  ? N
   C781       1.0     0.117850     0.673653     0.705478    Uiso  ? C
   C782       1.0     0.121916     0.692475     0.728950    Uiso  ? C
   N6         1.0     0.108192     0.717078     0.724229    Uiso  ? N
   C783       1.0     0.118737     0.727476     0.698702    Uiso  ? C
   C784       1.0     0.115535     0.707136     0.675954    Uiso  ? C
   C785       1.0     0.873423     0.691061     0.697386    Uiso  ? C
   C786       1.0     0.877275     0.711378     0.720190    Uiso  ? C
   H503       1.0     0.117896     0.652410     0.708234    Uiso  ? H
   H504       1.0     0.143075     0.696658     0.733007    Uiso  ? H
   H505       1.0     0.139687     0.732057     0.701071    Uiso  ? H
   H506       1.0     0.104480     0.716394     0.659940    Uiso  ? H
   H507       1.0     0.862954     0.673441     0.705085    Uiso  ? H
   H508       1.0     0.867838     0.729401     0.712427    Uiso  ? H
   H509       1.0     0.113418     0.681477     0.746450    Uiso  ? H
   H510       1.0     0.107538     0.745988     0.692872    Uiso  ? H
   H511       1.0     0.136163     0.701657     0.666274    Uiso  ? H
   H512       1.0     0.861043     0.700448     0.681317    Uiso  ? H
   H513       1.0     0.866760     0.704388     0.738292    Uiso  ? H
   N7         1.0     0.104441     0.317014     0.321326    Uiso  ? N
   C787       1.0     0.883512     0.296410     0.326879    Uiso  ? C
   C788       1.0     0.883109     0.274953     0.305703    Uiso  ? C
   N8         1.0     0.103899     0.282042     0.285251    Uiso  ? N
   C789       1.0     0.892291     0.307753     0.275362    Uiso  ? C
   C790       1.0     0.894055     0.329813     0.296242    Uiso  ? C
   C791       1.0     0.130527     0.306542     0.318147    Uiso  ? C
   C792       1.0     0.130322     0.284719     0.296799    Uiso  ? C
   H514       1.0     0.874807     0.293986     0.345278    Uiso  ? H
   H515       1.0     0.863493     0.270519     0.298363    Uiso  ? H
   H516       1.0     0.873096     0.306513     0.268441    Uiso  ? H
   H517       1.0     0.111227     0.345465     0.288673    Uiso  ? H
   H518       1.0     0.138389     0.298499     0.336774    Uiso  ? H
   H519       1.0     0.145542     0.289566     0.281313    Uiso  ? H
   H520       1.0     0.888713     0.256155     0.314381    Uiso  ? H
   H521       1.0     0.105665     0.311542     0.257296    Uiso  ? H
   H522       1.0     0.874741     0.339596     0.298850    Uiso  ? H
   H523       1.0     0.144919     0.322170     0.313422    Uiso  ? H
   H524       1.0     0.135987     0.266102     0.305324    Uiso  ? H
   N9         1.0     0.679866     0.896835     0.687604    Uiso  ? N
   C793       1.0     0.672341     0.111161     0.711002    Uiso  ? C
   C794       1.0     0.694094     0.113193     0.730885    Uiso  ? C
   N10        1.0     0.716507     0.896444     0.722205    Uiso  ? N
   C795       1.0     0.705768     0.869160     0.718452    Uiso  ? C
   C796       1.0     0.684856     0.869561     0.697388    Uiso  ? C
   C797       1.0     0.703245     0.108157     0.677163    Uiso  ? C
   C798       1.0     0.725360     0.105168     0.697435    Uiso  ? C
   H525       1.0     0.654987     0.122753     0.713033    Uiso  ? H
   H526       1.0     0.686265     0.106158     0.749541    Uiso  ? H
   H527       1.0     0.700103     0.861037     0.738266    Uiso  ? H
   H528       1.0     0.691454     0.859503     0.678942    Uiso  ? H
   H529       1.0     0.701727     0.127964     0.671971    Uiso  ? H
   H530       1.0     0.742570     0.892373     0.690158    Uiso  ? H
   H531       1.0     0.700526     0.134380     0.732508    Uiso  ? H
   H532       1.0     0.721854     0.856725     0.712910    Uiso  ? H
   H533       1.0     0.666390     0.860936     0.703792    Uiso  ? H
   H534       1.0     0.710669     0.896298     0.659548    Uiso  ? H
   H535       1.0     0.733086     0.125691     0.699677    Uiso  ? H
   N11        1.0     0.680030     0.104242     0.318044    Uiso  ? N
   C799       1.0     0.705542     0.892691     0.326451    Uiso  ? C
   C800       1.0     0.725779     0.891725     0.304930    Uiso  ? C
   N12        1.0     0.714798     0.103930     0.280715    Uiso  ? N
   C801       1.0     0.691205     0.891791     0.272080    Uiso  ? C
   C802       1.0     0.671239     0.890872     0.294504    Uiso  ? C
   C803       1.0     0.686561     0.130854     0.309455    Uiso  ? C
   C804       1.0     0.708372     0.130719     0.287586    Uiso  ? C
   H536       1.0     0.706554     0.878677     0.343521    Uiso  ? H
   H537       1.0     0.731268     0.870065     0.302774    Uiso  ? H
   H538       1.0     0.695383     0.871492     0.265699    Uiso  ? H
   H539       1.0     0.652486     0.100531     0.286713    Uiso  ? H
   H540       1.0     0.692965     0.141147     0.327424    Uiso  ? H
   H541       1.0     0.700411     0.140656     0.268775    Uiso  ? H
   H542       1.0     0.742905     0.101288     0.311571    Uiso  ? H
   H543       1.0     0.681712     0.103714     0.255801    Uiso  ? H
   H544       1.0     0.666127     0.870628     0.299166    Uiso  ? H
   H545       1.0     0.668056     0.139375     0.302293    Uiso  ? H
   H546       1.0     0.726250     0.143374     0.294037    Uiso  ? H
   N13        1.0     0.280228     0.106149     0.284005    Uiso  ? N
   C805       1.0     0.288799     0.880680     0.291971    Uiso  ? C
   C806       1.0     0.307366     0.879463     0.313985    Uiso  ? C
   N14        1.0     0.314990     0.106454     0.320890    Uiso  ? N
   C807       1.0     0.324173     0.121230     0.297664    Uiso  ? C
   C808       1.0     0.303780     0.120280     0.275485    Uiso  ? C
   C809       1.0     0.268728     0.117454     0.307677    Uiso  ? C
   C810       1.0     0.290259     0.119379     0.329998    Uiso  ? C
   H547       1.0     0.277997     0.863965     0.286115    Uiso  ? H
   H548       1.0     0.325327     0.868432     0.308746    Uiso  ? H
   H549       1.0     0.342574     0.111656     0.291004    Uiso  ? H
   H550       1.0     0.296886     0.140640     0.269079    Uiso  ? H
   H551       1.0     0.249542     0.108860     0.312469    Uiso  ? H
   H552       1.0     0.295428     0.138854     0.334706    Uiso  ? H
   H553       1.0     0.297294     0.867562     0.329708    Uiso  ? H
   H554       1.0     0.328919     0.142151     0.300997    Uiso  ? H
   H555       1.0     0.310837     0.111386     0.257285    Uiso  ? H
   H556       1.0     0.261334     0.137062     0.303480    Uiso  ? H
   H557       1.0     0.281007     0.108288     0.347398    Uiso  ? H
   N15        1.0     0.318209     0.103247     0.682534    Uiso  ? N
   C811       1.0     0.329742     0.893360     0.707041    Uiso  ? C
   C812       1.0     0.311291     0.892689     0.730250    Uiso  ? C
   N16        1.0     0.283774     0.102280     0.720726    Uiso  ? N
   C813       1.0     0.287928     0.130309     0.711162    Uiso  ? C
   C814       1.0     0.309368     0.130178     0.689105    Uiso  ? C
   C815       1.0     0.295988     0.887328     0.675617    Uiso  ? C
   C816       1.0     0.275305     0.886606     0.698914    Uiso  ? C
   H558       1.0     0.349864     0.888262     0.708464    Uiso  ? H
   H559       1.0     0.317792     0.105463     0.745554    Uiso  ? H
   H560       1.0     0.295391     0.144215     0.726240    Uiso  ? H
   H561       1.0     0.300893     0.140316     0.671936    Uiso  ? H
   H562       1.0     0.302247     0.867500     0.672396    Uiso  ? H
   H563       1.0     0.256614     0.894931     0.693255    Uiso  ? H
   H564       1.0     0.309420     0.873079     0.739461    Uiso  ? H
   H565       1.0     0.270478     0.138148     0.701495    Uiso  ? H
   H566       1.0     0.326706     0.139420     0.694873    Uiso  ? H
   H567       1.0     0.286493     0.894419     0.656878    Uiso  ? H
   H568       1.0     0.271534     0.864843     0.704557    Uiso  ? H
   N17        1.0     0.681301     0.319831     0.103815    Uiso  ? N
   C817       1.0     0.705665     0.326276     0.888504    Uiso  ? C
   C818       1.0     0.724992     0.304984     0.885932    Uiso  ? C
   N18        1.0     0.715503     0.282195     0.104268    Uiso  ? N
   C819       1.0     0.709824     0.291092     0.131866    Uiso  ? C
   C820       1.0     0.688381     0.312012     0.131306    Uiso  ? C
   C821       1.0     0.670110     0.296292     0.889564    Uiso  ? C
   C822       1.0     0.689467     0.273575     0.890787    Uiso  ? C
   H569       1.0     0.711354     0.344194     0.880100    Uiso  ? H
   H570       1.0     0.743870     0.313469     0.894207    Uiso  ? H
   H571       1.0     0.729565     0.300380     0.140852    Uiso  ? H
   H572       1.0     0.670091     0.304143     0.141119    Uiso  ? H
   H573       1.0     0.666301     0.301891     0.868197    Uiso  ? H
   H574       1.0     0.680466     0.256315     0.103275    Uiso  ? H
   H575       1.0     0.728297     0.299215     0.865075    Uiso  ? H
   H576       1.0     0.705330     0.273226     0.142511    Uiso  ? H
   H577       1.0     0.692262     0.329924     0.142224    Uiso  ? H
   H578       1.0     0.651219     0.291642     0.899319    Uiso  ? H
   H579       1.0     0.694263     0.264277     0.872316    Uiso  ? H
   N19        1.0     0.718584     0.720640     0.107579    Uiso  ? N
   C823       1.0     0.725539     0.703545     0.885492    Uiso  ? C
   C824       1.0     0.706784     0.680342     0.881975    Uiso  ? C
   N20        1.0     0.684737     0.683240     0.102050    Uiso  ? N
   C825       1.0     0.696494     0.682491     0.128661    Uiso  ? C
   C826       1.0     0.716141     0.705351     0.131970    Uiso  ? C
   C827       1.0     0.693348     0.732199     0.898355    Uiso  ? C
   C828       1.0     0.672909     0.709772     0.895480    Uiso  ? C
   H580       1.0     0.742303     0.709392     0.872392    Uiso  ? H
   H581       1.0     0.717276     0.661935     0.885895    Uiso  ? H
   H582       1.0     0.706303     0.665590     0.134632    Uiso  ? H
   H583       1.0     0.711837     0.718586     0.147539    Uiso  ? H
   H584       1.0     0.695965     0.741717     0.878350    Uiso  ? H
   H585       1.0     0.656089     0.712281     0.109230    Uiso  ? H
   H586       1.0     0.698145     0.680628     0.861952    Uiso  ? H
   H587       1.0     0.681097     0.682843     0.142389    Uiso  ? H
   H588       1.0     0.736058     0.697004     0.137022    Uiso  ? H
   H589       1.0     0.685961     0.744573     0.115015    Uiso  ? H
   H590       1.0     0.663570     0.709866     0.875751    Uiso  ? H
   N21        1.0     0.284677     0.720140     0.898731    Uiso  ? N
   C829       1.0     0.309775     0.728858     0.889311    Uiso  ? C
   C830       1.0     0.331276     0.708322     0.887530    Uiso  ? C
   N22        1.0     0.319963     0.683573     0.897919    Uiso  ? N
   C831       1.0     0.309819     0.686602     0.126404    Uiso  ? C
   C832       1.0     0.288531     0.708524     0.126185    Uiso  ? C
   C833       1.0     0.277630     0.699416     0.880723    Uiso  ? C
   C834       1.0     0.297777     0.676591     0.882031    Uiso  ? C
   H591       1.0     0.313280     0.749148     0.890637    Uiso  ? H
   H592       1.0     0.348758     0.717496     0.899003    Uiso  ? H
   H593       1.0     0.326451     0.691496     0.139384    Uiso  ? H
   H594       1.0     0.269956     0.700682     0.134983    Uiso  ? H
   H595       1.0     0.275963     0.705556     0.860794    Uiso  ? H
   H596       1.0     0.288571     0.657711     0.887452    Uiso  ? H
   H597       1.0     0.337566     0.707351     0.866332    Uiso  ? H
   H598       1.0     0.301725     0.669672     0.136729    Uiso  ? H
   H599       1.0     0.295823     0.724257     0.139281    Uiso  ? H
   H600       1.0     0.258517     0.691410     0.886514    Uiso  ? H
   H601       1.0     0.305918     0.674299     0.861436    Uiso  ? H
   N23        1.0     0.284422     0.281890     0.102010    Uiso  ? N
   C835       1.0     0.275116     0.308810     0.893208    Uiso  ? C
   C836       1.0     0.293611     0.331095     0.893802    Uiso  ? C
   N24        1.0     0.318341     0.319831     0.104051    Uiso  ? N
   C837       1.0     0.314635     0.306963     0.129958    Uiso  ? C
   C838       1.0     0.293272     0.286041     0.129147    Uiso  ? C
   C839       1.0     0.305302     0.276741     0.882835    Uiso  ? C
   C840       1.0     0.327009     0.299716     0.884879    Uiso  ? C
   H602       1.0     0.254697     0.311303     0.896488    Uiso  ? H
   H603       1.0     0.286705     0.347001     0.107599    Uiso  ? H
   H604       1.0     0.308003     0.322466     0.143563    Uiso  ? H
   H605       1.0     0.301465     0.267682     0.137808    Uiso  ? H
   H606       1.0     0.296192     0.274683     0.862318    Uiso  ? H
   H607       1.0     0.347160     0.291271     0.890197    Uiso  ? H
   H608       1.0     0.297141     0.338619     0.873957    Uiso  ? H
   H609       1.0     0.332876     0.298753     0.137524    Uiso  ? H
   H610       1.0     0.275031     0.290071     0.141453    Uiso  ? H
   H611       1.0     0.312127     0.256417     0.887838    Uiso  ? H
   H612       1.0     0.334085     0.309160     0.865779    Uiso  ? H
   N25        1.0     0.285948     0.323257     0.503442    Uiso  ? N
   C841       1.0     0.275305     0.296689     0.503824    Uiso  ? C
   C842       1.0     0.294967     0.274563     0.503800    Uiso  ? C
   N26        1.0     0.321866     0.285870     0.502274    Uiso  ? N
   C843       1.0     0.322842     0.304302     0.478935    Uiso  ? C
   C844       1.0     0.300101     0.325127     0.479678    Uiso  ? C
   C845       1.0     0.303171     0.324551     0.527103    Uiso  ? C
   C846       1.0     0.326124     0.304727     0.524740    Uiso  ? C
   H613       1.0     0.255661     0.292633     0.510045    Uiso  ? H
   H614       1.0     0.291966     0.262195     0.487638    Uiso  ? H
   H615       1.0     0.321835     0.292569     0.460191    Uiso  ? H
   H616       1.0     0.310398     0.344200     0.480321    Uiso  ? H
   H617       1.0     0.289862     0.319671     0.544030    Uiso  ? H
   H618       1.0     0.345901     0.314290     0.524977    Uiso  ? H
   H619       1.0     0.292344     0.264123     0.522229    Uiso  ? H
   H620       1.0     0.341198     0.315691     0.478575    Uiso  ? H
   H621       1.0     0.288027     0.324216     0.461941    Uiso  ? H
   H622       1.0     0.311040     0.344153     0.530502    Uiso  ? H
   H623       1.0     0.326906     0.293423     0.544013    Uiso  ? H
   N27        1.0     0.317771     0.718545     0.496991    Uiso  ? N
   C847       1.0     0.304471     0.716867     0.521699    Uiso  ? C
   C848       1.0     0.283148     0.697505     0.525559    Uiso  ? C
   N28        1.0     0.281243     0.682316     0.501313    Uiso  ? N
   C849       1.0     0.275550     0.699274     0.479096    Uiso  ? C
   C850       1.0     0.295783     0.722361     0.477492    Uiso  ? C
   C851       1.0     0.329242     0.692257     0.493145    Uiso  ? C
   C852       1.0     0.307475     0.670317     0.494324    Uiso  ? C
   H624       1.0     0.307266     0.730509     0.536711    Uiso  ? H
   H625       1.0     0.265609     0.710017     0.528487    Uiso  ? H
   H626       1.0     0.254738     0.705834     0.480408    Uiso  ? H
   H627       1.0     0.301823     0.724253     0.457993    Uiso  ? H
   H628       1.0     0.343043     0.688070     0.509397    Uiso  ? H
   H629       1.0     0.306476     0.660249     0.475086    Uiso  ? H
   H630       1.0     0.287630     0.685169     0.541788    Uiso  ? H
   H631       1.0     0.275521     0.688369     0.459665    Uiso  ? H
   H632       1.0     0.284017     0.740618     0.478868    Uiso  ? H
   H633       1.0     0.338901     0.690906     0.474979    Uiso  ? H
   H634       1.0     0.313107     0.655898     0.509671    Uiso  ? H
   N29        1.0     0.679670     0.719647     0.502697    Uiso  ? N
   C853       1.0     0.705824     0.728870     0.509716    Uiso  ? C
   C854       1.0     0.726341     0.708108     0.510442    Uiso  ? C
   N30        1.0     0.714601     0.682746     0.503919    Uiso  ? N
   C855       1.0     0.693138     0.677071     0.521787    Uiso  ? C
   C856       1.0     0.672789     0.699132     0.521649    Uiso  ? C
   C857       1.0     0.683458     0.707454     0.475964    Uiso  ? C
   C858       1.0     0.702416     0.682773     0.477479    Uiso  ? C
   H635       1.0     0.708668     0.747948     0.519313    Uiso  ? H
   H636       1.0     0.731869     0.705809     0.530157    Uiso  ? H
   H637       1.0     0.701263     0.673852     0.541391    Uiso  ? H
   H638       1.0     0.655094     0.689025     0.515517    Uiso  ? H
   H639       1.0     0.692770     0.720630     0.461624    Uiso  ? H
   H640       1.0     0.692517     0.662702     0.475084    Uiso  ? H
   H641       1.0     0.741443     0.712441     0.495720    Uiso  ? H
   H642       1.0     0.683070     0.658192     0.517833    Uiso  ? H
   H643       1.0     0.671169     0.708935     0.540184    Uiso  ? H
   H644       1.0     0.663529     0.701223     0.469153    Uiso  ? H
   H645       1.0     0.717632     0.684809     0.461900    Uiso  ? H
   N31        1.0     0.681132     0.283313     0.504431    Uiso  ? N
   C859       1.0     0.690349     0.290805     0.529596    Uiso  ? C
   C860       1.0     0.713612     0.308494     0.529194    Uiso  ? C
   N32        1.0     0.717453     0.317717     0.502804    Uiso  ? N
   C861       1.0     0.724235     0.295611     0.485282    Uiso  ? C
   C862       1.0     0.703373     0.273434     0.488841    Uiso  ? C
   C863       1.0     0.672321     0.307692     0.491377    Uiso  ? C
   C864       1.0     0.692288     0.330097     0.493664    Uiso  ? C
   H646       1.0     0.685140     0.279070     0.546288    Uiso  ? H
   H647       1.0     0.732121     0.299851     0.535810    Uiso  ? H
   H648       1.0     0.744915     0.289160     0.487502    Uiso  ? H
   H649       1.0     0.697594     0.264953     0.469391    Uiso  ? H
   H650       1.0     0.652904     0.312704     0.497626    Uiso  ? H
   H651       1.0     0.697382     0.339937     0.474553    Uiso  ? H
   H652       1.0     0.711041     0.325557     0.542646    Uiso  ? H
   H653       1.0     0.722337     0.300331     0.463839    Uiso  ? H
   H654       1.0     0.713359     0.256389     0.499543    Uiso  ? H
   H655       1.0     0.668516     0.303718     0.469992    Uiso  ? H
   H656       1.0     0.686055     0.346308     0.507561    Uiso  ? H
   N33        1.0     0.315517     0.503592     0.282750    Uiso  ? N
   C865       1.0     0.325049     0.513574     0.307002    Uiso  ? C
   C866       1.0     0.304693     0.515032     0.328875    Uiso  ? C
   N34        1.0     0.280369     0.502443     0.318935    Uiso  ? N
   C867       1.0     0.270332     0.515778     0.295177    Uiso  ? C
   C868       1.0     0.292579     0.517247     0.273898    Uiso  ? C
   C869       1.0     0.307719     0.476221     0.287793    Uiso  ? C
   C870       1.0     0.287053     0.476258     0.311002    Uiso  ? C
   H657       1.0     0.345515     0.514652     0.309277    Uiso  ? H
   H658       1.0     0.300194     0.535401     0.332254    Uiso  ? H
   H659       1.0     0.265192     0.535841     0.301230    Uiso  ? H
   H660       1.0     0.285141     0.510060     0.253717    Uiso  ? H
   H661       1.0     0.326143     0.465367     0.292410    Uiso  ? H
   H662       1.0     0.269468     0.466179     0.303408    Uiso  ? H
   H663       1.0     0.310601     0.505955     0.347891    Uiso  ? H
   H664       1.0     0.252989     0.503997     0.288748    Uiso  ? H
   H665       1.0     0.298301     0.537435     0.272033    Uiso  ? H
   H666       1.0     0.300737     0.465490     0.270785    Uiso  ? H
   H667       1.0     0.293273     0.465953     0.328606    Uiso  ? H
   N35        1.0     0.716571     0.499691     0.321923    Uiso  ? N
   C871       1.0     0.722720     0.480739     0.301552    Uiso  ? C
   C872       1.0     0.704374     0.481378     0.278631    Uiso  ? C
   N36        1.0     0.683277     0.500322     0.283587    Uiso  ? N
   C873       1.0     0.670443     0.492565     0.308917    Uiso  ? C
   C874       1.0     0.690466     0.493201     0.332774    Uiso  ? C
   C875       1.0     0.716075     0.524779     0.309404    Uiso  ? C
   C876       1.0     0.694499     0.526161     0.287531    Uiso  ? C
   H668       1.0     0.733752     0.463872     0.305539    Uiso  ? H
   H669       1.0     0.697841     0.459759     0.276826    Uiso  ? H
   H670       1.0     0.661423     0.473659     0.307339    Uiso  ? H
   H671       1.0     0.683880     0.508820     0.346203    Uiso  ? H
   H672       1.0     0.735035     0.530101     0.301700    Uiso  ? H
   H673       1.0     0.680273     0.540785     0.292617    Uiso  ? H
   H674       1.0     0.715499     0.488265     0.262033    Uiso  ? H
   H675       1.0     0.654726     0.507594     0.313176    Uiso  ? H
   H676       1.0     0.691645     0.474535     0.343050    Uiso  ? H
   H677       1.0     0.711267     0.538068     0.325363    Uiso  ? H
   H678       1.0     0.704530     0.533830     0.269122    Uiso  ? H
   N37        1.0     0.319024     0.496631     0.722407    Uiso  ? N
   C877       1.0     0.304858     0.472696     0.720788    Uiso  ? C
   C878       1.0     0.284360     0.472246     0.701143    Uiso  ? C
   N38        1.0     0.283611     0.497705     0.686929    Uiso  ? N
   C879       1.0     0.279221     0.518001     0.706340    Uiso  ? C
   C880       1.0     0.298629     0.516490     0.729259    Uiso  ? C
   C881       1.0     0.330439     0.501667     0.696228    Uiso  ? C
   C882       1.0     0.309256     0.503195     0.674989    Uiso  ? C
   H679       1.0     0.304691     0.457861     0.736150    Uiso  ? H
   H680       1.0     0.265024     0.469930     0.712464    Uiso  ? H
   H681       1.0     0.259431     0.517944     0.712836    Uiso  ? H
   H682       1.0     0.308701     0.535117     0.734951    Uiso  ? H
   H683       1.0     0.345194     0.487965     0.691235    Uiso  ? H
   H684       1.0     0.310577     0.522900     0.665256    Uiso  ? H
   H685       1.0     0.286909     0.456862     0.687057    Uiso  ? H
   H686       1.0     0.278394     0.537900     0.697230    Uiso  ? H
   H687       1.0     0.287524     0.509942     0.747170    Uiso  ? H
   H688       1.0     0.340663     0.521024     0.698025    Uiso  ? H
   H689       1.0     0.312228     0.488424     0.658982    Uiso  ? H
   N39        1.0     0.716840     0.502128     0.678954    Uiso  ? N
   C883       1.0     0.699953     0.524232     0.678590    Uiso  ? C
   C884       1.0     0.680044     0.526470     0.699588    Uiso  ? C
   N40        1.0     0.682911     0.502549     0.716373    Uiso  ? N
   C885       1.0     0.680246     0.478140     0.699572    Uiso  ? C
   C886       1.0     0.700452     0.478391     0.677206    Uiso  ? C
   C887       1.0     0.729913     0.501484     0.705782    Uiso  ? C
   C888       1.0     0.709351     0.500991     0.728014    Uiso  ? C
   H690       1.0     0.697872     0.533844     0.660350    Uiso  ? H
   H691       1.0     0.660346     0.527704     0.690649    Uiso  ? H
   H692       1.0     0.660161     0.478343     0.692617    Uiso  ? H
   H693       1.0     0.712916     0.460101     0.677070    Uiso  ? H
   H694       1.0     0.743872     0.518147     0.708178    Uiso  ? H
   H695       1.0     0.710811     0.484802     0.741813    Uiso  ? H
   H696       1.0     0.681846     0.544785     0.711326    Uiso  ? H
   H697       1.0     0.681583     0.458871     0.709805    Uiso  ? H
   H698       1.0     0.690133     0.478541     0.657372    Uiso  ? H
   H699       1.0     0.742231     0.483834     0.709095    Uiso  ? H
   H700       1.0     0.712596     0.518841     0.740256    Uiso  ? H
   N41        1.0     0.495790     0.321435     0.720122    Uiso  ? N
   C889       1.0     0.501740     0.330755     0.694647    Uiso  ? C
   C890       1.0     0.502507     0.309907     0.674132    Uiso  ? C
   N42        1.0     0.496670     0.284712     0.685576    Uiso  ? N
   C891       1.0     0.516050     0.279470     0.705675    Uiso  ? C
   C892       1.0     0.516243     0.302416     0.726830    Uiso  ? C
   C893       1.0     0.469785     0.309207     0.717806    Uiso  ? C
   C894       1.0     0.471465     0.286028     0.698472    Uiso  ? C
   H701       1.0     0.499453     0.351245     0.689080    Uiso  ? H
   H702       1.0     0.521265     0.310786     0.664456    Uiso  ? H
   H703       1.0     0.536144     0.276662     0.696168    Uiso  ? H
   H704       1.0     0.512104     0.294211     0.747581    Uiso  ? H
   H705       1.0     0.455145     0.322953     0.709492    Uiso  ? H
   H706       1.0     0.466875     0.265959     0.706967    Uiso  ? H
   H707       1.0     0.488268     0.315578     0.658618    Uiso  ? H
   H708       1.0     0.510113     0.262146     0.714847    Uiso  ? H
   H709       1.0     0.535845     0.312078     0.728660    Uiso  ? H
   H710       1.0     0.460609     0.302024     0.736579    Uiso  ? H
   H711       1.0     0.455815     0.288095     0.682981    Uiso  ? H
   N43        1.0     0.499477     0.322754     0.288117    Uiso  ? N
   C895       1.0     0.473865     0.316850     0.298787    Uiso  ? C
   C896       1.0     0.472775     0.295083     0.318922    Uiso  ? C
   N44        1.0     0.499885     0.285804     0.321789    Uiso  ? N
   C897       1.0     0.509200     0.275631     0.296509    Uiso  ? C
   C898       1.0     0.508871     0.297670     0.276593    Uiso  ? C
   C899       1.0     0.516661     0.329941     0.309714    Uiso  ? C
   C900       1.0     0.515834     0.307484     0.330422    Uiso  ? C
   H712       1.0     0.457456     0.329569     0.294147    Uiso  ? H
   H713       1.0     0.459973     0.279948     0.310404    Uiso  ? H
   H714       1.0     0.497816     0.258310     0.289820    Uiso  ? H
   H715       1.0     0.528773     0.298315     0.267480    Uiso  ? H
   H716       1.0     0.508059     0.347396     0.319574    Uiso  ? H
   H717       1.0     0.534227     0.299135     0.337307    Uiso  ? H
   H718       1.0     0.464532     0.304135     0.337459    Uiso  ? H
   H719       1.0     0.530554     0.269260     0.300680    Uiso  ? H
   H720       1.0     0.497674     0.293862     0.258270    Uiso  ? H
   H721       1.0     0.536835     0.333311     0.302866    Uiso  ? H
   H722       1.0     0.507014     0.315488     0.348078    Uiso  ? H
   N45        1.0     0.499004     0.680492     0.714325    Uiso  ? N
   C901       1.0     0.525578     0.689160     0.707055    Uiso  ? C
   C902       1.0     0.527978     0.709756     0.686219    Uiso  ? C
   N46        1.0     0.501482     0.717251     0.677819    Uiso  ? N
   C903       1.0     0.489825     0.692788     0.668779    Uiso  ? C
   C904       1.0     0.487573     0.671502     0.689919    Uiso  ? C
   C905       1.0     0.485222     0.704643     0.722707    Uiso  ? C
   C906       1.0     0.485714     0.725473     0.700287    Uiso  ? C
   H723       1.0     0.543086     0.683415     0.716692    Uiso  ? H
   H724       1.0     0.540150     0.704123     0.668429    Uiso  ? H
   H725       1.0     0.502716     0.685539     0.653210    Uiso  ? H
   H726       1.0     0.467617     0.666003     0.694731    Uiso  ? H
   H727       1.0     0.495759     0.713706     0.740302    Uiso  ? H
   H728       1.0     0.464594     0.729933     0.693030    Uiso  ? H
   H729       1.0     0.536843     0.726061     0.695146    Uiso  ? H
   H730       1.0     0.470887     0.698398     0.660150    Uiso  ? H
   H731       1.0     0.496950     0.654271     0.682493    Uiso  ? H
   H732       1.0     0.465491     0.700682     0.728302    Uiso  ? H
   H733       1.0     0.492290     0.744779     0.706510    Uiso  ? H
   N47        1.0     0.501602     0.721901     0.313275    Uiso  ? N
   C907       1.0     0.478060     0.721640     0.298629    Uiso  ? C
   C908       1.0     0.476359     0.701192     0.276712    Uiso  ? C
   N48        1.0     0.501945     0.687764     0.275986    Uiso  ? N
   C909       1.0     0.523299     0.708020     0.272007    Uiso  ? C
   C910       1.0     0.524420     0.726116     0.295917    Uiso  ? C
   C911       1.0     0.504937     0.694805     0.324181    Uiso  ? C
   C912       1.0     0.505525     0.673643     0.301466    Uiso  ? C
   H734       1.0     0.463046     0.734745     0.305460    Uiso  ? H
   H735       1.0     0.472448     0.712441     0.258235    Uiso  ? H
   H736       1.0     0.520011     0.719606     0.255013    Uiso  ? H
   H737       1.0     0.543172     0.721642     0.307122    Uiso  ? H
   H738       1.0     0.487885     0.691225     0.336791    Uiso  ? H
   H739       1.0     0.525053     0.662515     0.301696    Uiso  ? H
   H740       1.0     0.461388     0.686752     0.281352    Uiso  ? H
   H741       1.0     0.541793     0.698871     0.266446    Uiso  ? H
   H742       1.0     0.527758     0.746284     0.289232    Uiso  ? H
   H743       1.0     0.523641     0.694414     0.336528    Uiso  ? H
   H744       1.0     0.489136     0.658918     0.303675    Uiso  ? H
