
#======================================================================
# CRYSTAL DATA
#----------------------------------------------------------------------
data_VESTA_phase_1

_chemical_name_common                  ' Atoms. Timestep: 0'
_cell_length_a                         53.385574
_cell_length_b                         53.385574
_cell_length_c                         53.385574
_cell_angle_alpha                      90.000000
_cell_angle_beta                       90.000000
_cell_angle_gamma                      90.000000
_cell_volume                           1.000000
_space_group_name_H-M_alt              'P 1'
_space_group_IT_number                 1

loop_
_space_group_symop_operation_xyz
   'x, y, z'

loop_
   _atom_site_label
   _atom_site_occupancy
   _atom_site_fract_x
   _atom_site_fract_y
   _atom_site_fract_z
   _atom_site_adp_type
   _atom_site_U_iso_or_equiv
   _atom_site_type_symbol
   C1         1.0     0.860860     0.795526     0.254304    Uiso  ? C
   C2         1.0     0.836170     0.807162     0.262532    Uiso  ? C
   C3         1.0     0.821096     0.792784     0.279791    Uiso  ? C
   H1         1.0     0.826175     0.774166     0.287281    Uiso  ? H
   C4         1.0     0.799113     0.802586     0.288740    Uiso  ? C
   H2         1.0     0.788161     0.792284     0.301522    Uiso  ? H
   C5         1.0     0.791094     0.825838     0.281663    Uiso  ? C
   H3         1.0     0.773893     0.832637     0.288566    Uiso  ? H
   C6         1.0     0.803832     0.839980     0.263886    Uiso  ? C
   C7         1.0     0.827323     0.831380     0.255295    Uiso  ? C
   H4         1.0     0.836981     0.841361     0.240731    Uiso  ? H
   C8         1.0     0.792072     0.863640     0.252341    Uiso  ? C
   C9         1.0     0.858873     0.751140     0.209258    Uiso  ? C
   C10        1.0     0.835147     0.740406     0.197902    Uiso  ? C
   C11        1.0     0.821612     0.721439     0.210244    Uiso  ? C
   H5         1.0     0.830352     0.714143     0.227998    Uiso  ? H
   C12        1.0     0.798124     0.711554     0.201098    Uiso  ? C
   H6         1.0     0.786604     0.701308     0.214835    Uiso  ? H
   C13        1.0     0.787443     0.722207     0.180347    Uiso  ? C
   H7         1.0     0.770463     0.713307     0.173279    Uiso  ? H
   C14        1.0     0.800994     0.738355     0.165128    Uiso  ? C
   C15        1.0     0.824905     0.748302     0.174967    Uiso  ? C
   H8         1.0     0.834169     0.763422     0.163411    Uiso  ? H
   C16        1.0     0.789020     0.749154     0.142472    Uiso  ? C
   C17        1.0     0.136760     0.749819     0.205649    Uiso  ? C
   C18        1.0     0.156281     0.736061     0.190433    Uiso  ? C
   C19        1.0     0.162543     0.710501     0.195042    Uiso  ? C
   H9         1.0     0.155406     0.700186     0.210203    Uiso  ? H
   C20        1.0     0.180704     0.698024     0.180477    Uiso  ? C
   H10        1.0     0.183944     0.678586     0.185165    Uiso  ? H
   C21        1.0     0.192518     0.710709     0.160611    Uiso  ? C
   H11        1.0     0.204744     0.700995     0.149611    Uiso  ? H
   C22        1.0     0.190329     0.736503     0.158240    Uiso  ? C
   C23        1.0     0.172249     0.750055     0.173694    Uiso  ? C
   H12        1.0     0.168865     0.769577     0.173652    Uiso  ? H
   C24        1.0     0.207799     0.749525     0.139955    Uiso  ? C
   C25        1.0     0.141308     0.797032     0.248474    Uiso  ? C
   C26        1.0     0.159441     0.813876     0.261271    Uiso  ? C
   C27        1.0     0.163195     0.811641     0.286140    Uiso  ? C
   H13        1.0     0.151383     0.797946     0.296297    Uiso  ? H
   C28        1.0     0.179009     0.825974     0.301048    Uiso  ? C
   H14        1.0     0.182550     0.820848     0.319927    Uiso  ? H
   C29        1.0     0.192238     0.845791     0.290069    Uiso  ? C
   H15        1.0     0.203082     0.857187     0.301969    Uiso  ? H
   C30        1.0     0.191501     0.848351     0.263551    Uiso  ? C
   C31        1.0     0.174575     0.832562     0.249117    Uiso  ? C
   H16        1.0     0.173538     0.832965     0.228818    Uiso  ? H
   C32        1.0     0.208264     0.867759     0.251596    Uiso  ? C
   C33        1.0     0.747487     0.140709     0.208753    Uiso  ? C
   C34        1.0     0.735025     0.161150     0.194130    Uiso  ? C
   C35        1.0     0.710376     0.167955     0.200946    Uiso  ? C
   H17        1.0     0.699951     0.157565     0.213112    Uiso  ? H
   C36        1.0     0.699153     0.188025     0.188692    Uiso  ? C
   H18        1.0     0.680933     0.194611     0.194437    Uiso  ? H
   C37        1.0     0.710996     0.200882     0.168468    Uiso  ? C
   H19        1.0     0.701937     0.216330     0.158792    Uiso  ? H
   C38        1.0     0.736182     0.193250     0.161726    Uiso  ? C
   C39        1.0     0.747528     0.173285     0.173517    Uiso  ? C
   H20        1.0     0.768005     0.170261     0.168954    Uiso  ? H
   C40        1.0     0.748073     0.206233     0.139732    Uiso  ? C
   C41        1.0     0.749345     0.861248     0.207204    Uiso  ? C
   C42        1.0     0.738486     0.837620     0.195890    Uiso  ? C
   C43        1.0     0.716982     0.826774     0.206371    Uiso  ? C
   H21        1.0     0.706725     0.833293     0.221978    Uiso  ? H
   C44        1.0     0.709074     0.802614     0.199203    Uiso  ? C
   H22        1.0     0.693363     0.792722     0.207988    Uiso  ? H
   C45        1.0     0.717977     0.792229     0.178071    Uiso  ? C
   H23        1.0     0.709549     0.775279     0.171131    Uiso  ? H
   C46        1.0     0.736841     0.804454     0.163960    Uiso  ? C
   C47        1.0     0.748644     0.825944     0.173266    Uiso  ? C
   H24        1.0     0.765733     0.833081     0.162682    Uiso  ? H
   C48        1.0     0.746966     0.791304     0.141265    Uiso  ? C
   C49        1.0     0.790864     0.141515     0.251073    Uiso  ? C
   C50        1.0     0.803983     0.163449     0.262485    Uiso  ? C
   C51        1.0     0.796313     0.171893     0.285722    Uiso  ? C
   H25        1.0     0.779471     0.163893     0.296650    Uiso  ? H
   C52        1.0     0.809256     0.191235     0.296884    Uiso  ? C
   H26        1.0     0.804120     0.197131     0.317612    Uiso  ? H
   C53        1.0     0.829024     0.204457     0.284610    Uiso  ? C
   H27        1.0     0.837243     0.220418     0.293616    Uiso  ? H
   C54        1.0     0.837616     0.196304     0.260762    Uiso  ? C
   C55        1.0     0.824047     0.176245     0.248705    Uiso  ? C
   H28        1.0     0.827645     0.170976     0.229280    Uiso  ? H
   C56        1.0     0.858652     0.208311     0.249352    Uiso  ? C
   C57        1.0     0.751945     0.793531     0.860616    Uiso  ? C
   C58        1.0     0.739870     0.807078     0.839462    Uiso  ? C
   C59        1.0     0.715937     0.799211     0.832710    Uiso  ? C
   H29        1.0     0.704934     0.784810     0.842527    Uiso  ? H
   C60        1.0     0.704940     0.809180     0.811299    Uiso  ? C
   H30        1.0     0.687439     0.802453     0.804709    Uiso  ? H
   C61        1.0     0.715574     0.829678     0.799202    Uiso  ? C
   H31        1.0     0.706944     0.837599     0.783114    Uiso  ? H
   C62        1.0     0.738647     0.839604     0.807379    Uiso  ? C
   C63        1.0     0.750903     0.827486     0.826536    Uiso  ? C
   H32        1.0     0.769513     0.832740     0.831041    Uiso  ? H
   C64        1.0     0.750160     0.862863     0.793435    Uiso  ? C
   C65        1.0     0.790541     0.746273     0.862041    Uiso  ? C
   C66        1.0     0.803552     0.732927     0.840170    Uiso  ? C
   C67        1.0     0.796545     0.710037     0.830327    Uiso  ? C
   H33        1.0     0.782824     0.699779     0.838913    Uiso  ? H
   C68        1.0     0.809346     0.698682     0.811307    Uiso  ? C
   H34        1.0     0.805326     0.678302     0.806234    Uiso  ? H
   C69        1.0     0.830234     0.710372     0.799502    Uiso  ? C
   H35        1.0     0.841671     0.699772     0.785847    Uiso  ? H
   C70        1.0     0.837693     0.735364     0.806090    Uiso  ? C
   C71        1.0     0.823376     0.746329     0.826305    Uiso  ? C
   H36        1.0     0.828505     0.764808     0.831348    Uiso  ? H
   C72        1.0     0.859223     0.749053     0.794124    Uiso  ? C
   C73        1.0     0.860643     0.255104     0.207177    Uiso  ? C
   C74        1.0     0.839317     0.267065     0.193390    Uiso  ? C
   C75        1.0     0.830755     0.291022     0.199043    Uiso  ? C
   H37        1.0     0.839701     0.300823     0.212525    Uiso  ? H
   C76        1.0     0.809011     0.300810     0.188415    Uiso  ? C
   H38        1.0     0.802440     0.320190     0.194769    Uiso  ? H
   C77        1.0     0.796035     0.287181     0.169455    Uiso  ? C
   H39        1.0     0.779216     0.295541     0.159052    Uiso  ? H
   C78        1.0     0.805077     0.264939     0.160587    Uiso  ? C
   C79        1.0     0.826040     0.253589     0.173508    Uiso  ? C
   H40        1.0     0.831331     0.234212     0.171255    Uiso  ? H
   C80        1.0     0.791032     0.252307     0.139145    Uiso  ? C
   C81        1.0     0.142546     0.212540     0.249928    Uiso  ? C
   C82        1.0     0.167401     0.202782     0.258581    Uiso  ? C
   C83        1.0     0.182832     0.218720     0.270992    Uiso  ? C
   H41        1.0     0.175524     0.238024     0.276008    Uiso  ? H
   C84        1.0     0.206972     0.212184     0.275311    Uiso  ? C
   H42        1.0     0.218731     0.227798     0.284076    Uiso  ? H
   C85        1.0     0.215288     0.186422     0.271470    Uiso  ? C
   H43        1.0     0.233790     0.181816     0.278135    Uiso  ? H
   C86        1.0     0.198608     0.169040     0.260443    Uiso  ? C
   C87        1.0     0.174274     0.177287     0.254978    Uiso  ? C
   H44        1.0     0.161319     0.165807     0.244841    Uiso  ? H
   C88        1.0     0.207898     0.144009     0.253087    Uiso  ? C
   C89        1.0     0.252156     0.865637     0.208659    Uiso  ? C
   C90        1.0     0.264777     0.844034     0.193486    Uiso  ? C
   C91        1.0     0.290615     0.838974     0.196314    Uiso  ? C
   H45        1.0     0.301499     0.849816     0.209501    Uiso  ? H
   C92        1.0     0.301882     0.821411     0.181085    Uiso  ? C
   H46        1.0     0.321125     0.814689     0.184648    Uiso  ? H
   C93        1.0     0.289765     0.807619     0.162393    Uiso  ? C
   H47        1.0     0.299990     0.793600     0.152117    Uiso  ? H
   C94        1.0     0.265066     0.810938     0.159545    Uiso  ? C
   C95        1.0     0.252163     0.829893     0.174357    Uiso  ? C
   H48        1.0     0.231515     0.832441     0.173214    Uiso  ? H
   C96        1.0     0.251995     0.795185     0.139704    Uiso  ? C
   O1         1.0     0.877149     0.809457     0.242752    Uiso  ? O
   O2         1.0     0.865174     0.771810     0.256169    Uiso  ? O
   O3         1.0     0.870968     0.767105     0.197232    Uiso  ? O
   O4         1.0     0.865189     0.746786     0.232610    Uiso  ? O
   O5         1.0     0.134332     0.773179     0.203397    Uiso  ? O
   O6         1.0     0.124583     0.737432     0.222293    Uiso  ? O
   O7         1.0     0.137215     0.798044     0.224574    Uiso  ? O
   O8         1.0     0.128574     0.781543     0.262458    Uiso  ? O
   O9         1.0     0.771461     0.137229     0.206982    Uiso  ? O
   O10        1.0     0.734903     0.127172     0.223684    Uiso  ? O
   O11        1.0     0.764163     0.873924     0.193524    Uiso  ? O
   O12        1.0     0.745132     0.867027     0.230372    Uiso  ? O
   O13        1.0     0.805045     0.877824     0.238565    Uiso  ? O
   O14        1.0     0.768425     0.866367     0.254179    Uiso  ? O
   O15        1.0     0.794709     0.136045     0.228607    Uiso  ? O
   O16        1.0     0.773679     0.128842     0.263246    Uiso  ? O
   O17        1.0     0.774387     0.795299     0.865730    Uiso  ? O
   O18        1.0     0.739539     0.776292     0.872737    Uiso  ? O
   O19        1.0     0.797686     0.768588     0.867948    Uiso  ? O
   O20        1.0     0.773994     0.735995     0.875530    Uiso  ? O
   O21        1.0     0.801717     0.758402     0.125762    Uiso  ? O
   O22        1.0     0.764872     0.746243     0.139596    Uiso  ? O
   O23        1.0     0.759763     0.802783     0.125267    Uiso  ? O
   O24        1.0     0.742049     0.767704     0.137185    Uiso  ? O
   O25        1.0     0.864164     0.231552     0.205319    Uiso  ? O
   O26        1.0     0.872961     0.268481     0.222792    Uiso  ? O
   O27        1.0     0.862536     0.206843     0.225312    Uiso  ? O
   O28        1.0     0.872753     0.223185     0.262107    Uiso  ? O
   O29        1.0     0.126411     0.198418     0.239218    Uiso  ? O
   O30        1.0     0.136314     0.235872     0.253414    Uiso  ? O
   O31        1.0     0.122536     0.241945     0.192913    Uiso  ? O
   O32        1.0     0.133295     0.259591     0.229159    Uiso  ? O
   O33        1.0     0.193308     0.128295     0.241891    Uiso  ? O
   O34        1.0     0.232145     0.138101     0.256182    Uiso  ? O
   O35        1.0     0.207374     0.870346     0.228274    Uiso  ? O
   O36        1.0     0.224648     0.879051     0.265029    Uiso  ? O
   O37        1.0     0.228897     0.869775     0.207201    Uiso  ? O
   O38        1.0     0.266029     0.879980     0.223347    Uiso  ? O
   O39        1.0     0.241404     0.127877     0.196397    Uiso  ? O
   O40        1.0     0.258450     0.138410     0.232042    Uiso  ? O
   O41        1.0     0.803839     0.238563     0.873310    Uiso  ? O
   O42        1.0     0.765952     0.253786     0.864237    Uiso  ? O
   O43        1.0     0.765242     0.192568     0.873696    Uiso  ? O
   O44        1.0     0.745044     0.227286     0.866254    Uiso  ? O
   O45        1.0     0.771866     0.204865     0.135037    Uiso  ? O
   O46        1.0     0.734759     0.221609     0.125716    Uiso  ? O
   O47        1.0     0.792896     0.228233     0.135155    Uiso  ? O
   O48        1.0     0.774528     0.263820     0.126431    Uiso  ? O
   O49        1.0     0.891100     0.822466     0.187387    Uiso  ? O
   O50        1.0     0.820091     0.896887     0.180899    Uiso  ? O
   O51        1.0     0.816052     0.814260     0.109348    Uiso  ? O
   O52        1.0     0.107122     0.185179     0.185797    Uiso  ? O
   O53        1.0     0.195145     0.117684     0.184331    Uiso  ? O
   O54        1.0     0.821799     0.187262     0.104191    Uiso  ? O
   Zn1        1.0     0.897473     0.793610     0.212409    Uiso  ? Zn
   Zn2        1.0     0.103400     0.750164     0.253933    Uiso  ? Zn
   Zn3        1.0     0.789534     0.100868     0.209645    Uiso  ? Zn
   Zn4        1.0     0.745752     0.101520     0.253138    Uiso  ? Zn
   Zn5        1.0     0.787842     0.787648     0.104056    Uiso  ? Zn
   Zn6        1.0     0.744064     0.745421     0.102868    Uiso  ? Zn
   Zn7        1.0     0.101992     0.214008     0.212609    Uiso  ? Zn
   Zn8        1.0     0.897861     0.255449     0.253876    Uiso  ? Zn
   Zn9        1.0     0.214134     0.106669     0.215191    Uiso  ? Zn
   Zn10       1.0     0.255226     0.102465     0.254251    Uiso  ? Zn
   Zn11       1.0     0.791952     0.211129     0.897888    Uiso  ? Zn
   Zn12       1.0     0.745452     0.252942     0.899160    Uiso  ? Zn
   C97        1.0     0.137030     0.203279     0.750118    Uiso  ? C
   C98        1.0     0.158040     0.188469     0.739070    Uiso  ? C
   C99        1.0     0.166862     0.195157     0.715277    Uiso  ? C
   H49        1.0     0.154975     0.207542     0.704012    Uiso  ? H
   C100       1.0     0.187151     0.184365     0.704712    Uiso  ? C
   H50        1.0     0.194910     0.190850     0.686159    Uiso  ? H
   C101       1.0     0.200913     0.167296     0.717737    Uiso  ? C
   H51        1.0     0.215121     0.155337     0.710205    Uiso  ? H
   C102       1.0     0.191820     0.158576     0.741884    Uiso  ? C
   C103       1.0     0.169491     0.168995     0.752737    Uiso  ? C
   H52        1.0     0.161944     0.162482     0.772053    Uiso  ? H
   C104       1.0     0.205716     0.136675     0.754634    Uiso  ? C
   C105       1.0     0.141846     0.249306     0.791189    Uiso  ? C
   C106       1.0     0.161902     0.261805     0.805861    Uiso  ? C
   C107       1.0     0.172090     0.284831     0.795201    Uiso  ? C
   H53        1.0     0.164676     0.292146     0.778641    Uiso  ? H
   C108       1.0     0.192237     0.297116     0.807369    Uiso  ? C
   H54        1.0     0.198822     0.313807     0.797777    Uiso  ? H
   C109       1.0     0.203150     0.287582     0.829098    Uiso  ? C
   H55        1.0     0.213940     0.300339     0.840346    Uiso  ? H
   C110       1.0     0.194414     0.264838     0.839635    Uiso  ? C
   C111       1.0     0.174646     0.252352     0.827527    Uiso  ? C
   H56        1.0     0.170355     0.233607     0.835821    Uiso  ? H
   C112       1.0     0.207807     0.252841     0.860807    Uiso  ? C
   C113       1.0     0.857779     0.253383     0.788068    Uiso  ? C
   C114       1.0     0.832925     0.259764     0.799513    Uiso  ? C
   C115       1.0     0.815953     0.270079     0.784092    Uiso  ? C
   H57        1.0     0.820684     0.273282     0.764796    Uiso  ? H
   C116       1.0     0.792027     0.277170     0.791676    Uiso  ? C
   H58        1.0     0.779780     0.283452     0.777367    Uiso  ? H
   C117       1.0     0.783363     0.271143     0.816602    Uiso  ? C
   H59        1.0     0.764326     0.273704     0.821525    Uiso  ? H
   C118       1.0     0.799692     0.257656     0.833122    Uiso  ? C
   C119       1.0     0.825171     0.251723     0.824359    Uiso  ? C
   H60        1.0     0.836809     0.242888     0.838322    Uiso  ? H
   C120       1.0     0.789279     0.250366     0.858389    Uiso  ? C
   C121       1.0     0.861087     0.204490     0.746160    Uiso  ? C
   C122       1.0     0.838317     0.191852     0.735421    Uiso  ? C
   C123       1.0     0.830719     0.197940     0.711705    Uiso  ? C
   H61        1.0     0.843018     0.210593     0.701054    Uiso  ? H
   C124       1.0     0.809526     0.187031     0.700872    Uiso  ? C
   H62        1.0     0.804459     0.189202     0.680839    Uiso  ? H
   C125       1.0     0.795535     0.169610     0.713908    Uiso  ? C
   H63        1.0     0.780280     0.158780     0.704055    Uiso  ? H
   C126       1.0     0.802610     0.161647     0.738103    Uiso  ? C
   C127       1.0     0.824433     0.173160     0.748751    Uiso  ? C
   H64        1.0     0.832028     0.168119     0.767934    Uiso  ? H
   C128       1.0     0.789897     0.140540     0.750670    Uiso  ? C
   C129       1.0     0.260773     0.861870     0.796005    Uiso  ? C
   C130       1.0     0.268365     0.836243     0.806159    Uiso  ? C
   C131       1.0     0.284449     0.821181     0.791796    Uiso  ? C
   H65        1.0     0.293583     0.829333     0.775574    Uiso  ? H
   C132       1.0     0.293554     0.797643     0.799972    Uiso  ? C
   H66        1.0     0.308359     0.787217     0.789707    Uiso  ? H
   C133       1.0     0.283889     0.787219     0.822328    Uiso  ? C
   H67        1.0     0.290129     0.768251     0.827620    Uiso  ? H
   C134       1.0     0.268493     0.801871     0.837737    Uiso  ? C
   C135       1.0     0.260494     0.825467     0.829233    Uiso  ? C
   H68        1.0     0.249498     0.836537     0.840785    Uiso  ? H
   C136       1.0     0.257156     0.789605     0.861618    Uiso  ? C
   C137       1.0     0.247576     0.141249     0.793047    Uiso  ? C
   C138       1.0     0.260683     0.162304     0.806047    Uiso  ? C
   C139       1.0     0.285075     0.169093     0.799259    Uiso  ? C
   H69        1.0     0.294496     0.160515     0.782878    Uiso  ? H
   C140       1.0     0.298532     0.188449     0.811612    Uiso  ? C
   H70        1.0     0.315109     0.196308     0.803380    Uiso  ? H
   C141       1.0     0.287842     0.202007     0.830915    Uiso  ? C
   H71        1.0     0.297180     0.218795     0.837181    Uiso  ? H
   C142       1.0     0.263709     0.195817     0.839550    Uiso  ? C
   C143       1.0     0.250324     0.175647     0.826714    Uiso  ? C
   H72        1.0     0.229743     0.173324     0.830849    Uiso  ? H
   C144       1.0     0.251982     0.211541     0.860597    Uiso  ? C
   C145       1.0     0.210115     0.859251     0.756517    Uiso  ? C
   C146       1.0     0.198725     0.836929     0.744008    Uiso  ? C
   C147       1.0     0.209474     0.825452     0.723268    Uiso  ? C
   H73        1.0     0.225410     0.833752     0.712896    Uiso  ? H
   C148       1.0     0.199581     0.802123     0.714352    Uiso  ? C
   H74        1.0     0.208370     0.791943     0.699127    Uiso  ? H
   C149       1.0     0.177036     0.793050     0.722888    Uiso  ? C
   H75        1.0     0.170987     0.774912     0.714732    Uiso  ? H
   C150       1.0     0.163488     0.805313     0.742224    Uiso  ? C
   C151       1.0     0.174487     0.827357     0.753147    Uiso  ? C
   H76        1.0     0.164608     0.834868     0.768876    Uiso  ? H
   C152       1.0     0.140438     0.792109     0.752199    Uiso  ? C
   C153       1.0     0.250175     0.210011     0.138199    Uiso  ? C
   C154       1.0     0.261400     0.200278     0.162484    Uiso  ? C
   C155       1.0     0.277405     0.215167     0.177104    Uiso  ? C
   H77        1.0     0.284540     0.232474     0.170131    Uiso  ? H
   C156       1.0     0.286896     0.208119     0.200116    Uiso  ? C
   H78        1.0     0.299974     0.219864     0.210203    Uiso  ? H
   C157       1.0     0.278299     0.185800     0.211233    Uiso  ? C
   H79        1.0     0.285338     0.180963     0.229791    Uiso  ? H
   C158       1.0     0.262533     0.168268     0.196930    Uiso  ? C
   C159       1.0     0.255915     0.175651     0.172097    Uiso  ? C
   H80        1.0     0.245632     0.162494     0.159667    Uiso  ? H
   C160       1.0     0.254755     0.142993     0.209037    Uiso  ? C
   C161       1.0     0.209023     0.254610     0.141058    Uiso  ? C
   C162       1.0     0.195780     0.264526     0.163517    Uiso  ? C
   C163       1.0     0.206569     0.284435     0.176975    Uiso  ? C
   H81        1.0     0.225800     0.289844     0.171892    Uiso  ? H
   C164       1.0     0.194979     0.294104     0.197595    Uiso  ? C
   H82        1.0     0.203232     0.309606     0.208241    Uiso  ? H
   C165       1.0     0.174513     0.284113     0.207718    Uiso  ? C
   H83        1.0     0.167916     0.293659     0.224799    Uiso  ? H
   C166       1.0     0.161327     0.264850     0.194657    Uiso  ? C
   C167       1.0     0.172844     0.254133     0.173359    Uiso  ? C
   H84        1.0     0.162837     0.239986     0.163443    Uiso  ? H
   C168       1.0     0.138329     0.254411     0.205889    Uiso  ? C
   C169       1.0     0.139600     0.747980     0.792804    Uiso  ? C
   C170       1.0     0.162889     0.736941     0.804357    Uiso  ? C
   C171       1.0     0.177418     0.719500     0.791084    Uiso  ? C
   H85        1.0     0.170943     0.710672     0.774136    Uiso  ? H
   C172       1.0     0.200373     0.712095     0.799491    Uiso  ? C
   H86        1.0     0.210712     0.697839     0.789201    Uiso  ? H
   C173       1.0     0.209858     0.721446     0.822031    Uiso  ? C
   H87        1.0     0.228839     0.715072     0.827221    Uiso  ? H
   C174       1.0     0.197106     0.739342     0.836379    Uiso  ? C
   C175       1.0     0.172821     0.746097     0.828223    Uiso  ? C
   H88        1.0     0.161357     0.760421     0.837451    Uiso  ? H
   C176       1.0     0.209561     0.749401     0.859355    Uiso  ? C
   C177       1.0     0.858545     0.791403     0.749337    Uiso  ? C
   C178       1.0     0.835297     0.804705     0.740499    Uiso  ? C
   C179       1.0     0.823518     0.796412     0.718482    Uiso  ? C
   H89        1.0     0.831661     0.779664     0.709068    Uiso  ? H
   C180       1.0     0.804244     0.810682     0.706915    Uiso  ? C
   H90        1.0     0.797605     0.802689     0.689564    Uiso  ? H
   C181       1.0     0.794724     0.832362     0.718278    Uiso  ? C
   H91        1.0     0.778046     0.840407     0.710515    Uiso  ? H
   C182       1.0     0.806752     0.842170     0.739141    Uiso  ? C
   C183       1.0     0.825860     0.827151     0.751926    Uiso  ? C
   H92        1.0     0.834055     0.833673     0.768284    Uiso  ? H
   C184       1.0     0.794460     0.863387     0.752649    Uiso  ? C
   C185       1.0     0.746932     0.138105     0.794720    Uiso  ? C
   C186       1.0     0.734101     0.158130     0.808694    Uiso  ? C
   C187       1.0     0.709696     0.166281     0.802196    Uiso  ? C
   H93        1.0     0.699515     0.156700     0.786851    Uiso  ? H
   C188       1.0     0.699144     0.187268     0.813982    Uiso  ? C
   H94        1.0     0.681583     0.194064     0.805888    Uiso  ? H
   C189       1.0     0.711732     0.200307     0.832816    Uiso  ? C
   H95        1.0     0.703301     0.215783     0.842645    Uiso  ? H
   C190       1.0     0.736293     0.191632     0.840116    Uiso  ? C
   C191       1.0     0.746235     0.169128     0.829430    Uiso  ? C
   H96        1.0     0.764235     0.162855     0.835641    Uiso  ? H
   C192       1.0     0.748746     0.204116     0.861311    Uiso  ? C
   O55        1.0     0.132916     0.201738     0.773991    Uiso  ? O
   O56        1.0     0.125067     0.220324     0.737041    Uiso  ? O
   O57        1.0     0.135859     0.225689     0.794422    Uiso  ? O
   O58        1.0     0.127065     0.262359     0.777288    Uiso  ? O
   O59        1.0     0.876336     0.246289     0.801602    Uiso  ? O
   O60        1.0     0.860590     0.253237     0.763873    Uiso  ? O
   O61        1.0     0.873575     0.193791     0.763590    Uiso  ? O
   O62        1.0     0.864357     0.228956     0.742547    Uiso  ? O
   O63        1.0     0.247390     0.876703     0.809038    Uiso  ? O
   O64        1.0     0.260816     0.864899     0.771283    Uiso  ? O
   O65        1.0     0.226986     0.133389     0.801928    Uiso  ? O
   O66        1.0     0.259114     0.128581     0.775801    Uiso  ? O
   O67        1.0     0.202417     0.129980     0.777455    Uiso  ? O
   O68        1.0     0.223408     0.125937     0.742007    Uiso  ? O
   O69        1.0     0.197504     0.875098     0.769323    Uiso  ? O
   O70        1.0     0.231846     0.865854     0.749554    Uiso  ? O
   O71        1.0     0.235615     0.196113     0.124352    Uiso  ? O
   O72        1.0     0.252107     0.233322     0.134201    Uiso  ? O
   O73        1.0     0.196240     0.242863     0.124655    Uiso  ? O
   O74        1.0     0.232065     0.259643     0.137456    Uiso  ? O
   O75        1.0     0.203888     0.229820     0.865600    Uiso  ? O
   O76        1.0     0.223602     0.264975     0.873803    Uiso  ? O
   O77        1.0     0.230047     0.205525     0.867638    Uiso  ? O
   O78        1.0     0.262980     0.229876     0.871362    Uiso  ? O
   O79        1.0     0.122615     0.759174     0.806455    Uiso  ? O
   O80        1.0     0.135978     0.745190     0.769385    Uiso  ? O
   O81        1.0     0.125810     0.805094     0.765853    Uiso  ? O
   O82        1.0     0.135666     0.768541     0.746802    Uiso  ? O
   O83        1.0     0.863396     0.792525     0.772927    Uiso  ? O
   O84        1.0     0.870883     0.776450     0.736004    Uiso  ? O
   O85        1.0     0.863014     0.772237     0.798951    Uiso  ? O
   O86        1.0     0.872841     0.737310     0.778356    Uiso  ? O
   O87        1.0     0.807256     0.879530     0.765212    Uiso  ? O
   O88        1.0     0.770403     0.867915     0.747923    Uiso  ? O
   O89        1.0     0.795095     0.136680     0.773248    Uiso  ? O
   O90        1.0     0.773923     0.127643     0.738686    Uiso  ? O
   O91        1.0     0.771096     0.136278     0.795235    Uiso  ? O
   O92        1.0     0.734041     0.123999     0.780310    Uiso  ? O
   O93        1.0     0.761991     0.878938     0.805687    Uiso  ? O
   O94        1.0     0.747610     0.865161     0.769737    Uiso  ? O
   O95        1.0     0.206466     0.772574     0.137252    Uiso  ? O
   O96        1.0     0.223388     0.737426     0.126637    Uiso  ? O
   O97        1.0     0.228005     0.796101     0.138441    Uiso  ? O
   O98        1.0     0.264450     0.779209     0.125976    Uiso  ? O
   O99        1.0     0.247485     0.802573     0.878351    Uiso  ? O
   O100       1.0     0.257235     0.765226     0.864241    Uiso  ? O
   O101       1.0     0.197199     0.762976     0.874876    Uiso  ? O
   O102       1.0     0.232956     0.744539     0.863731    Uiso  ? O
   O103       1.0     0.883252     0.195115     0.822722    Uiso  ? O
   O104       1.0     0.197323     0.886466     0.827214    Uiso  ? O
   O105       1.0     0.179638     0.184319     0.104907    Uiso  ? O
   O106       1.0     0.108023     0.822532     0.809145    Uiso  ? O
   O107       1.0     0.817757     0.899517     0.821484    Uiso  ? O
   O108       1.0     0.183074     0.793308     0.885312    Uiso  ? O
   Zn13       1.0     0.894716     0.213058     0.790033    Uiso  ? Zn
   Zn14       1.0     0.897583     0.252998     0.746645    Uiso  ? Zn
   Zn15       1.0     0.216728     0.896600     0.796306    Uiso  ? Zn
   Zn16       1.0     0.253604     0.900000     0.750227    Uiso  ? Zn
   Zn17       1.0     0.208600     0.211330     0.102235    Uiso  ? Zn
   Zn18       1.0     0.252501     0.256932     0.101829    Uiso  ? Zn
   Zn19       1.0     0.898788     0.787915     0.791481    Uiso  ? Zn
   Zn20       1.0     0.897788     0.746743     0.747314    Uiso  ? Zn
   Zn21       1.0     0.791161     0.102809     0.792054    Uiso  ? Zn
   Zn22       1.0     0.745621     0.100589     0.749099    Uiso  ? Zn
   Zn23       1.0     0.218226     0.784109     0.101437    Uiso  ? Zn
   Zn24       1.0     0.253547     0.745679     0.101944    Uiso  ? Zn
   H97        1.0     0.195896     0.893451     0.842641    Uiso  ? H
   H98        1.0     0.192442     0.870147     0.826041    Uiso  ? H
   H99        1.0     0.824579     0.882776     0.171231    Uiso  ? H
   H100       1.0     0.829827     0.111069     0.177766    Uiso  ? H
   H101       1.0     0.820542     0.171061     0.112511    Uiso  ? H
   H102       1.0     0.839062     0.189724     0.896558    Uiso  ? H
   H103       1.0     0.118384     0.188600     0.172035    Uiso  ? H
   H104       1.0     0.101212     0.168599     0.188693    Uiso  ? H
   H105       1.0     0.167846     0.792628     0.895432    Uiso  ? H
   H106       1.0     0.181146     0.802288     0.869289    Uiso  ? H
   H107       1.0     0.107903     0.831038     0.181610    Uiso  ? H
   H108       1.0     0.875733     0.826433     0.178803    Uiso  ? H
   H109       1.0     0.194975     0.135840     0.182501    Uiso  ? H
   H110       1.0     0.197586     0.106512     0.169863    Uiso  ? H
   H111       1.0     0.111433     0.837963     0.798423    Uiso  ? H
   H112       1.0     0.107302     0.823264     0.826702    Uiso  ? H
   H113       1.0     0.827694     0.815134     0.894132    Uiso  ? H
   H114       1.0     0.818305     0.824165     0.123720    Uiso  ? H
   H115       1.0     0.832017     0.888913     0.819968    Uiso  ? H
   H116       1.0     0.811598     0.106973     0.837694    Uiso  ? H
   H117       1.0     0.164445     0.185853     0.893896    Uiso  ? H
   H118       1.0     0.181715     0.170695     0.115521    Uiso  ? H
   H119       1.0     0.871361     0.182102     0.826781    Uiso  ? H
   H120       1.0     0.892599     0.203602     0.836154    Uiso  ? H
   C193       1.0     0.855394     0.616815     0.350293    Uiso  ? C
   C194       1.0     0.831065     0.604615     0.341461    Uiso  ? C
   C195       1.0     0.816438     0.617665     0.325256    Uiso  ? C
   H121       1.0     0.820851     0.636597     0.318350    Uiso  ? H
   C196       1.0     0.793411     0.607915     0.316409    Uiso  ? C
   H122       1.0     0.780719     0.616586     0.302679    Uiso  ? H
   C197       1.0     0.784931     0.584868     0.324673    Uiso  ? C
   H123       1.0     0.767383     0.578479     0.317975    Uiso  ? H
   C198       1.0     0.798697     0.570070     0.341652    Uiso  ? C
   C199       1.0     0.822187     0.579938     0.349843    Uiso  ? C
   H124       1.0     0.832126     0.569027     0.363873    Uiso  ? H
   C200       1.0     0.788730     0.545548     0.350265    Uiso  ? C
   C201       1.0     0.859504     0.657785     0.394430    Uiso  ? C
   C202       1.0     0.833765     0.664079     0.404109    Uiso  ? C
   C203       1.0     0.816623     0.677914     0.389108    Uiso  ? C
   H125       1.0     0.822041     0.684991     0.371411    Uiso  ? H
   C204       1.0     0.792278     0.684254     0.399386    Uiso  ? C
   H126       1.0     0.781177     0.698281     0.387822    Uiso  ? H
   C205       1.0     0.784169     0.673504     0.421982    Uiso  ? C
   H127       1.0     0.766037     0.678822     0.426800    Uiso  ? H
   C206       1.0     0.800473     0.657950     0.435711    Uiso  ? C
   C207       1.0     0.825107     0.654846     0.426622    Uiso  ? C
   H128       1.0     0.838946     0.642784     0.437578    Uiso  ? H
   C208       1.0     0.790234     0.648801     0.459837    Uiso  ? C
   C209       1.0     0.140062     0.656436     0.392006    Uiso  ? C
   C210       1.0     0.159663     0.668904     0.407853    Uiso  ? C
   C211       1.0     0.163622     0.694308     0.405195    Uiso  ? C
   H129       1.0     0.151904     0.706815     0.393156    Uiso  ? H
   C212       1.0     0.182085     0.706423     0.418515    Uiso  ? C
   H130       1.0     0.186791     0.725290     0.416985    Uiso  ? H
   C213       1.0     0.197337     0.693349     0.435327    Uiso  ? C
   H131       1.0     0.210513     0.704543     0.446429    Uiso  ? H
   C214       1.0     0.193962     0.667463     0.439779    Uiso  ? C
   C215       1.0     0.175230     0.654885     0.424590    Uiso  ? C
   H132       1.0     0.173447     0.634762     0.425648    Uiso  ? H
   C216       1.0     0.207962     0.655501     0.460761    Uiso  ? C
   C217       1.0     0.138285     0.611415     0.351679    Uiso  ? C
   C218       1.0     0.160186     0.596731     0.340327    Uiso  ? C
   C219       1.0     0.169629     0.605537     0.318256    Uiso  ? C
   H133       1.0     0.159961     0.620269     0.309100    Uiso  ? H
   C220       1.0     0.191011     0.593822     0.306960    Uiso  ? C
   H134       1.0     0.195949     0.599093     0.286824    Uiso  ? H
   C221       1.0     0.200361     0.571235     0.315921    Uiso  ? C
   H135       1.0     0.215661     0.560892     0.306878    Uiso  ? H
   C222       1.0     0.191702     0.561352     0.339290    Uiso  ? C
   C223       1.0     0.172162     0.574384     0.351898    Uiso  ? C
   H136       1.0     0.168256     0.570126     0.371594    Uiso  ? H
   C224       1.0     0.204402     0.538601     0.350040    Uiso  ? C
   C225       1.0     0.750742     0.461580     0.392529    Uiso  ? C
   C226       1.0     0.738091     0.440604     0.407351    Uiso  ? C
   C227       1.0     0.713240     0.432216     0.400484    Uiso  ? C
   H137       1.0     0.701855     0.441043     0.386480    Uiso  ? H
   C228       1.0     0.701338     0.413618     0.414685    Uiso  ? C
   H138       1.0     0.682450     0.407337     0.408915    Uiso  ? H
   C229       1.0     0.713931     0.401435     0.433789    Uiso  ? C
   H139       1.0     0.703642     0.386146     0.441276    Uiso  ? H
   C230       1.0     0.738979     0.406769     0.440388    Uiso  ? C
   C231       1.0     0.750718     0.426604     0.426959    Uiso  ? C
   H140       1.0     0.769985     0.431793     0.431848    Uiso  ? H
   C232       1.0     0.750503     0.393818     0.462179    Uiso  ? C
   C233       1.0     0.747037     0.540056     0.394582    Uiso  ? C
   C234       1.0     0.736497     0.564409     0.405173    Uiso  ? C
   C235       1.0     0.719696     0.578164     0.390867    Uiso  ? C
   H141       1.0     0.715229     0.574813     0.371147    Uiso  ? H
   C236       1.0     0.710681     0.600633     0.400169    Uiso  ? C
   H142       1.0     0.699384     0.610913     0.386986    Uiso  ? H
   C237       1.0     0.717844     0.610772     0.422829    Uiso  ? C
   H143       1.0     0.711689     0.628696     0.429308    Uiso  ? H
   C238       1.0     0.734485     0.597864     0.438414    Uiso  ? C
   C239       1.0     0.745158     0.575223     0.428990    Uiso  ? C
   H144       1.0     0.758287     0.564823     0.440143    Uiso  ? H
   C240       1.0     0.744831     0.608157     0.462312    Uiso  ? C
   C241       1.0     0.793696     0.464834     0.347650    Uiso  ? C
   C242       1.0     0.805426     0.441957     0.337336    Uiso  ? C
   C243       1.0     0.796264     0.431488     0.314980    Uiso  ? C
   H145       1.0     0.782241     0.441989     0.303273    Uiso  ? H
   C244       1.0     0.807988     0.409699     0.303667    Uiso  ? C
   H146       1.0     0.799180     0.403392     0.286923    Uiso  ? H
   C245       1.0     0.829031     0.398541     0.314903    Uiso  ? C
   H147       1.0     0.838500     0.383713     0.304114    Uiso  ? H
   C246       1.0     0.838213     0.408303     0.336853    Uiso  ? C
   C247       1.0     0.826250     0.428912     0.347805    Uiso  ? C
   H148       1.0     0.833472     0.436186     0.365615    Uiso  ? H
   C248       1.0     0.859272     0.395508     0.350407    Uiso  ? C
   C249       1.0     0.747504     0.606737     0.540674    Uiso  ? C
   C250       1.0     0.736680     0.595948     0.564448    Uiso  ? C
   C251       1.0     0.716430     0.607301     0.577229    Uiso  ? C
   H149       1.0     0.707778     0.624600     0.572527    Uiso  ? H
   C252       1.0     0.705359     0.595002     0.598448    Uiso  ? C
   H150       1.0     0.689439     0.604729     0.606851    Uiso  ? H
   C253       1.0     0.715765     0.574125     0.609338    Uiso  ? C
   H151       1.0     0.708720     0.565930     0.625995    Uiso  ? H
   C254       1.0     0.737115     0.562802     0.597674    Uiso  ? C
   C255       1.0     0.745645     0.572668     0.574110    Uiso  ? C
   H152       1.0     0.758538     0.562502     0.562166    Uiso  ? H
   C256       1.0     0.745814     0.538665     0.609668    Uiso  ? C
   C257       1.0     0.789968     0.648805     0.541994    Uiso  ? C
   C258       1.0     0.805720     0.661619     0.561050    Uiso  ? C
   C259       1.0     0.801157     0.686609     0.566201    Uiso  ? C
   H153       1.0     0.785684     0.696479     0.557373    Uiso  ? H
   C260       1.0     0.818053     0.700116     0.580797    Uiso  ? C
   H154       1.0     0.812390     0.719914     0.585635    Uiso  ? H
   C261       1.0     0.837178     0.687817     0.594226    Uiso  ? C
   H155       1.0     0.846736     0.698253     0.609550    Uiso  ? H
   C262       1.0     0.841501     0.661923     0.590573    Uiso  ? C
   C263       1.0     0.826647     0.648990     0.572551    Uiso  ? C
   H156       1.0     0.833589     0.630618     0.568031    Uiso  ? H
   C264       1.0     0.863763     0.650978     0.605639    Uiso  ? C
   C265       1.0     0.858277     0.349462     0.392190    Uiso  ? C
   C266       1.0     0.835261     0.338155     0.405840    Uiso  ? C
   C267       1.0     0.827836     0.314205     0.399484    Uiso  ? C
   H157       1.0     0.838686     0.303384     0.387878    Uiso  ? H
   C268       1.0     0.808496     0.301083     0.411536    Uiso  ? C
   H158       1.0     0.805530     0.281545     0.409882    Uiso  ? H
   C269       1.0     0.795187     0.314806     0.430451    Uiso  ? C
   H159       1.0     0.780104     0.305370     0.440510    Uiso  ? H
   C270       1.0     0.802033     0.339028     0.438105    Uiso  ? C
   C271       1.0     0.821473     0.350704     0.425684    Uiso  ? C
   H160       1.0     0.826871     0.370014     0.430968    Uiso  ? H
   C272       1.0     0.789389     0.349239     0.460264    Uiso  ? C
   C273       1.0     0.138732     0.392177     0.350587    Uiso  ? C
   C274       1.0     0.160079     0.405406     0.338718    Uiso  ? C
   C275       1.0     0.170898     0.396804     0.316991    Uiso  ? C
   H161       1.0     0.162427     0.380843     0.307323    Uiso  ? H
   C276       1.0     0.190145     0.409373     0.304862    Uiso  ? C
   H162       1.0     0.200004     0.402566     0.289016    Uiso  ? H
   C277       1.0     0.200280     0.430862     0.314851    Uiso  ? C
   H163       1.0     0.216400     0.437727     0.305287    Uiso  ? H
   C278       1.0     0.190942     0.441451     0.337197    Uiso  ? C
   C279       1.0     0.171650     0.427329     0.349946    Uiso  ? C
   H164       1.0     0.163920     0.435549     0.367552    Uiso  ? H
   C280       1.0     0.204343     0.463169     0.347962    Uiso  ? C
   C281       1.0     0.251777     0.537970     0.391036    Uiso  ? C
   C282       1.0     0.263935     0.558516     0.406975    Uiso  ? C
   C283       1.0     0.289482     0.561899     0.404302    Uiso  ? C
   H165       1.0     0.301886     0.549040     0.394110    Uiso  ? H
   C284       1.0     0.302655     0.579095     0.418302    Uiso  ? C
   H166       1.0     0.322617     0.582064     0.415445    Uiso  ? H
   C285       1.0     0.289868     0.595787     0.434846    Uiso  ? C
   H167       1.0     0.299966     0.608065     0.447096    Uiso  ? H
   C286       1.0     0.264326     0.593340     0.438174    Uiso  ? C
   C287       1.0     0.251209     0.574586     0.423050    Uiso  ? C
   H168       1.0     0.230867     0.571550     0.424365    Uiso  ? H
   C288       1.0     0.252738     0.609440     0.458818    Uiso  ? C
   O109       1.0     0.869709     0.604194     0.364763    Uiso  ? O
   O110       1.0     0.861945     0.639214     0.344600    Uiso  ? O
   O111       1.0     0.875250     0.645958     0.407848    Uiso  ? O
   O112       1.0     0.864503     0.660855     0.370660    Uiso  ? O
   O113       1.0     0.133477     0.634662     0.397732    Uiso  ? O
   O114       1.0     0.127044     0.670487     0.377274    Uiso  ? O
   O115       1.0     0.134108     0.608468     0.374970    Uiso  ? O
   O116       1.0     0.125424     0.625982     0.337840    Uiso  ? O
   O117       1.0     0.772941     0.467321     0.397412    Uiso  ? O
   O118       1.0     0.737806     0.473482     0.376354    Uiso  ? O
   O119       1.0     0.762120     0.525125     0.407349    Uiso  ? O
   O120       1.0     0.743306     0.535847     0.370377    Uiso  ? O
   O121       1.0     0.802164     0.531653     0.364909    Uiso  ? O
   O122       1.0     0.765578     0.538299     0.344795    Uiso  ? O
   O123       1.0     0.796552     0.470223     0.370195    Uiso  ? O
   O124       1.0     0.777041     0.476489     0.334599    Uiso  ? O
   O125       1.0     0.771186     0.604310     0.536335    Uiso  ? O
   O126       1.0     0.735498     0.624283     0.529804    Uiso  ? O
   O127       1.0     0.794882     0.626497     0.534142    Uiso  ? O
   O128       1.0     0.774595     0.661949     0.528388    Uiso  ? O
   O129       1.0     0.803665     0.635206     0.473817    Uiso  ? O
   O130       1.0     0.767749     0.655739     0.466774    Uiso  ? O
   O131       1.0     0.758209     0.593829     0.475699    Uiso  ? O
   O132       1.0     0.742774     0.630648     0.468960    Uiso  ? O
   O133       1.0     0.874624     0.360984     0.404517    Uiso  ? O
   O134       1.0     0.861473     0.344457     0.368341    Uiso  ? O
   O135       1.0     0.873500     0.408423     0.364684    Uiso  ? O
   O136       1.0     0.863803     0.372153     0.345906    Uiso  ? O
   O137       1.0     0.135674     0.393648     0.374378    Uiso  ? O
   O138       1.0     0.124980     0.377374     0.337656    Uiso  ? O
   O139       1.0     0.134819     0.372899     0.394554    Uiso  ? O
   O140       1.0     0.124437     0.336123     0.380160    Uiso  ? O
   O141       1.0     0.192603     0.478231     0.361625    Uiso  ? O
   O142       1.0     0.228208     0.466096     0.343057    Uiso  ? O
   O143       1.0     0.204330     0.536254     0.374541    Uiso  ? O
   O144       1.0     0.220625     0.526210     0.337368    Uiso  ? O
   O145       1.0     0.228230     0.535939     0.393853    Uiso  ? O
   O146       1.0     0.263740     0.522741     0.376148    Uiso  ? O
   O147       1.0     0.240634     0.475127     0.404352    Uiso  ? O
   O148       1.0     0.251493     0.465027     0.366241    Uiso  ? O
   O149       1.0     0.806379     0.356570     0.521792    Uiso  ? O
   O150       1.0     0.769296     0.344193     0.535888    Uiso  ? O
   O151       1.0     0.760945     0.403087     0.525604    Uiso  ? O
   O152       1.0     0.746938     0.366080     0.537274    Uiso  ? O
   O153       1.0     0.774200     0.393245     0.465477    Uiso  ? O
   O154       1.0     0.737049     0.377321     0.474995    Uiso  ? O
   O155       1.0     0.793203     0.371827     0.465573    Uiso  ? O
   O156       1.0     0.774297     0.336071     0.473144    Uiso  ? O
   O157       1.0     0.888989     0.589032     0.418105    Uiso  ? O
   O158       1.0     0.817127     0.506461     0.417860    Uiso  ? O
   O159       1.0     0.815689     0.584810     0.491752    Uiso  ? O
   O160       1.0     0.894101     0.416242     0.418895    Uiso  ? O
   O161       1.0     0.203312     0.489664     0.423560    Uiso  ? O
   O162       1.0     0.814070     0.414446     0.511634    Uiso  ? O
   Zn25       1.0     0.895914     0.617845     0.392628    Uiso  ? Zn
   Zn26       1.0     0.898329     0.658287     0.347681    Uiso  ? Zn
   Zn27       1.0     0.789685     0.502670     0.389288    Uiso  ? Zn
   Zn28       1.0     0.746850     0.500510     0.347093    Uiso  ? Zn
   Zn29       1.0     0.786690     0.609607     0.498278    Uiso  ? Zn
   Zn30       1.0     0.745522     0.653083     0.503289    Uiso  ? Zn
   Zn31       1.0     0.896034     0.389669     0.389712    Uiso  ? Zn
   Zn32       1.0     0.896997     0.347053     0.349553    Uiso  ? Zn
   Zn33       1.0     0.215566     0.499603     0.388989    Uiso  ? Zn
   Zn34       1.0     0.251887     0.500396     0.345529    Uiso  ? Zn
   Zn35       1.0     0.788661     0.386247     0.503175    Uiso  ? Zn
   Zn36       1.0     0.745546     0.346232     0.501333    Uiso  ? Zn
   C289       1.0     0.136831     0.399515     0.647976    Uiso  ? C
   C290       1.0     0.158675     0.412134     0.659228    Uiso  ? C
   C291       1.0     0.165993     0.404713     0.683130    Uiso  ? C
   H169       1.0     0.156600     0.391297     0.694129    Uiso  ? H
   C292       1.0     0.183226     0.418707     0.697006    Uiso  ? C
   H170       1.0     0.186831     0.412816     0.716257    Uiso  ? H
   C293       1.0     0.196700     0.438033     0.685411    Uiso  ? C
   H171       1.0     0.209674     0.447640     0.696579    Uiso  ? H
   C294       1.0     0.193404     0.443088     0.659758    Uiso  ? C
   C295       1.0     0.173426     0.430731     0.647098    Uiso  ? C
   H172       1.0     0.167393     0.437780     0.628016    Uiso  ? H
   C296       1.0     0.209308     0.463627     0.648437    Uiso  ? C
   C297       1.0     0.141603     0.352124     0.608936    Uiso  ? C
   C298       1.0     0.166011     0.343586     0.597734    Uiso  ? C
   C299       1.0     0.180889     0.327825     0.611837    Uiso  ? C
   H173       1.0     0.174227     0.319243     0.629733    Uiso  ? H
   C300       1.0     0.204282     0.319817     0.603597    Uiso  ? C
   H174       1.0     0.214247     0.307696     0.614999    Uiso  ? H
   C301       1.0     0.213229     0.327278     0.580211    Uiso  ? C
   H175       1.0     0.231428     0.320237     0.574647    Uiso  ? H
   C302       1.0     0.199002     0.343233     0.564422    Uiso  ? C
   C303       1.0     0.174973     0.352298     0.573694    Uiso  ? C
   H176       1.0     0.166275     0.366197     0.564341    Uiso  ? H
   C304       1.0     0.210421     0.353884     0.541043    Uiso  ? C
   C305       1.0     0.858483     0.350269     0.608825    Uiso  ? C
   C306       1.0     0.837397     0.336462     0.595263    Uiso  ? C
   C307       1.0     0.830563     0.312074     0.601089    Uiso  ? C
   H177       1.0     0.842218     0.300264     0.612326    Uiso  ? H
   C308       1.0     0.811414     0.300637     0.589773    Uiso  ? C
   H178       1.0     0.807201     0.281444     0.594679    Uiso  ? H
   C309       1.0     0.798249     0.311902     0.570476    Uiso  ? C
   H179       1.0     0.784261     0.301973     0.561867    Uiso  ? H
   C310       1.0     0.805283     0.335406     0.561335    Uiso  ? C
   C311       1.0     0.824965     0.347474     0.573553    Uiso  ? C
   H180       1.0     0.829219     0.366107     0.567799    Uiso  ? H
   C312       1.0     0.793147     0.345455     0.538495    Uiso  ? C
   C313       1.0     0.862108     0.394154     0.650031    Uiso  ? C
   C314       1.0     0.841447     0.408255     0.663593    Uiso  ? C
   C315       1.0     0.833960     0.399575     0.687391    Uiso  ? C
   H181       1.0     0.843370     0.383164     0.695747    Uiso  ? H
   C316       1.0     0.813499     0.410866     0.699355    Uiso  ? C
   H182       1.0     0.807374     0.401888     0.716051    Uiso  ? H
   C317       1.0     0.800898     0.431184     0.687970    Uiso  ? C
   H183       1.0     0.785460     0.439383     0.697040    Uiso  ? H
   C318       1.0     0.807540     0.439939     0.664351    Uiso  ? C
   C319       1.0     0.828672     0.429184     0.652994    Uiso  ? C
   H184       1.0     0.833306     0.435775     0.634521    Uiso  ? H
   C320       1.0     0.793613     0.462445     0.653436    Uiso  ? C
   C321       1.0     0.251362     0.545168     0.606257    Uiso  ? C
   C322       1.0     0.261290     0.569386     0.593652    Uiso  ? C
   C323       1.0     0.277880     0.584572     0.608894    Uiso  ? C
   H185       1.0     0.282101     0.580815     0.629308    Uiso  ? H
   C324       1.0     0.286649     0.606793     0.599278    Uiso  ? C
   H186       1.0     0.300841     0.617774     0.609404    Uiso  ? H
   C325       1.0     0.278752     0.615232     0.575080    Uiso  ? C
   H187       1.0     0.285216     0.633647     0.569283    Uiso  ? H
   C326       1.0     0.262642     0.600685     0.560398    Uiso  ? C
   C327       1.0     0.255449     0.576371     0.569191    Uiso  ? C
   H188       1.0     0.244317     0.564245     0.556176    Uiso  ? H
   C328       1.0     0.252891     0.611943     0.536969    Uiso  ? C
   C329       1.0     0.252103     0.462554     0.607471    Uiso  ? C
   C330       1.0     0.263006     0.440428     0.593512    Uiso  ? C
   C331       1.0     0.287683     0.431741     0.600849    Uiso  ? C
   H189       1.0     0.297486     0.439081     0.615222    Uiso  ? H
   C332       1.0     0.299566     0.412024     0.588681    Uiso  ? C
   H190       1.0     0.317587     0.405462     0.595539    Uiso  ? H
   C333       1.0     0.287572     0.399181     0.568440    Uiso  ? C
   H191       1.0     0.295852     0.382538     0.559686    Uiso  ? H
   C334       1.0     0.262518     0.406831     0.561067    Uiso  ? C
   C335       1.0     0.250440     0.425881     0.574233    Uiso  ? C
   H192       1.0     0.231064     0.432823     0.568927    Uiso  ? H
   C336       1.0     0.251048     0.393897     0.539100    Uiso  ? C
   C337       1.0     0.210936     0.541770     0.650136    Uiso  ? C
   C338       1.0     0.201822     0.566447     0.658758    Uiso  ? C
   C339       1.0     0.216546     0.581408     0.673738    Uiso  ? C
   H193       1.0     0.234306     0.574337     0.678863    Uiso  ? H
   C340       1.0     0.209693     0.605211     0.682489    Uiso  ? C
   H194       1.0     0.220819     0.616774     0.694084    Uiso  ? H
   C341       1.0     0.186275     0.614777     0.674965    Uiso  ? C
   H195       1.0     0.180706     0.633055     0.680968    Uiso  ? H
   C342       1.0     0.170175     0.600063     0.659288    Uiso  ? C
   C343       1.0     0.177327     0.575946     0.652790    Uiso  ? C
   H196       1.0     0.165013     0.564226     0.641135    Uiso  ? H
   C344       1.0     0.146186     0.611175     0.651593    Uiso  ? C
   C345       1.0     0.252924     0.392093     0.459781    Uiso  ? C
   C346       1.0     0.262628     0.402227     0.435218    Uiso  ? C
   C347       1.0     0.277884     0.387875     0.419289    Uiso  ? C
   H197       1.0     0.288749     0.372633     0.427623    Uiso  ? H
   C348       1.0     0.283650     0.395349     0.393966    Uiso  ? C
   H198       1.0     0.295752     0.384992     0.382923    Uiso  ? H
   C349       1.0     0.273428     0.417722     0.384660    Uiso  ? C
   H199       1.0     0.279879     0.422206     0.365836    Uiso  ? H
   C350       1.0     0.258572     0.433769     0.399694    Uiso  ? C
   C351       1.0     0.252388     0.425458     0.424905    Uiso  ? C
   H200       1.0     0.241070     0.436976     0.434817    Uiso  ? H
   C352       1.0     0.248163     0.458497     0.389294    Uiso  ? C
   C353       1.0     0.206330     0.351258     0.462503    Uiso  ? C
   C354       1.0     0.191609     0.338987     0.442104    Uiso  ? C
   C355       1.0     0.199120     0.314672     0.432907    Uiso  ? C
   H201       1.0     0.216198     0.306492     0.440266    Uiso  ? H
   C356       1.0     0.186183     0.300814     0.414883    Uiso  ? C
   H202       1.0     0.192982     0.282115     0.409685    Uiso  ? H
   C357       1.0     0.166001     0.312693     0.402708    Uiso  ? C
   H203       1.0     0.157295     0.302633     0.387423    Uiso  ? H
   C358       1.0     0.159235     0.337659     0.408443    Uiso  ? C
   C359       1.0     0.172187     0.350526     0.428126    Uiso  ? C
   H204       1.0     0.166143     0.368399     0.434126    Uiso  ? H
   C360       1.0     0.138603     0.349595     0.393797    Uiso  ? C
   C361       1.0     0.142590     0.653565     0.606974    Uiso  ? C
   C362       1.0     0.167311     0.663535     0.595631    Uiso  ? C
   C363       1.0     0.184307     0.677150     0.610739    Uiso  ? C
   H205       1.0     0.180046     0.685052     0.628767    Uiso  ? H
   C364       1.0     0.206317     0.685873     0.601007    Uiso  ? C
   H206       1.0     0.218301     0.697024     0.613557    Uiso  ? H
   C365       1.0     0.215896     0.679439     0.578158    Uiso  ? C
   H207       1.0     0.235151     0.683406     0.575398    Uiso  ? H
   C366       1.0     0.199951     0.664985     0.562595    Uiso  ? C
   C367       1.0     0.176142     0.659201     0.571094    Uiso  ? C
   H208       1.0     0.163408     0.650045     0.558991    Uiso  ? H
   C368       1.0     0.211276     0.654964     0.539173    Uiso  ? C
   C369       1.0     0.860969     0.607352     0.650977    Uiso  ? C
   C370       1.0     0.839043     0.592874     0.662448    Uiso  ? C
   C371       1.0     0.829174     0.601813     0.684909    Uiso  ? C
   H209       1.0     0.837382     0.617914     0.695212    Uiso  ? H
   C372       1.0     0.807226     0.590832     0.695639    Uiso  ? C
   H210       1.0     0.799488     0.596654     0.713704    Uiso  ? H
   C373       1.0     0.795691     0.570227     0.683437    Uiso  ? C
   H211       1.0     0.778977     0.562973     0.692100    Uiso  ? H
   C374       1.0     0.805008     0.559429     0.662795    Uiso  ? C
   C375       1.0     0.827280     0.570608     0.652211    Uiso  ? C
   H212       1.0     0.835909     0.563862     0.635656    Uiso  ? H
   C376       1.0     0.793241     0.535780     0.652189    Uiso  ? C
   C377       1.0     0.750606     0.458750     0.609831    Uiso  ? C
   C378       1.0     0.737900     0.437431     0.594990    Uiso  ? C
   C379       1.0     0.716823     0.425713     0.605699    Uiso  ? C
   H213       1.0     0.710179     0.432158     0.623469    Uiso  ? H
   C380       1.0     0.706541     0.403489     0.597700    Uiso  ? C
   H214       1.0     0.689435     0.394732     0.606266    Uiso  ? H
   C381       1.0     0.717258     0.391501     0.577511    Uiso  ? C
   H215       1.0     0.707315     0.375167     0.569522    Uiso  ? H
   C382       1.0     0.738258     0.401924     0.565315    Uiso  ? C
   C383       1.0     0.750092     0.423617     0.575185    Uiso  ? C
   H216       1.0     0.767046     0.430937     0.565892    Uiso  ? H
   C384       1.0     0.749613     0.389422     0.541637    Uiso  ? C
   O163       1.0     0.124452     0.409379     0.629979    Uiso  ? O
   O164       1.0     0.129832     0.378370     0.656793    Uiso  ? O
   O165       1.0     0.123983     0.358404     0.594435    Uiso  ? O
   O166       1.0     0.138093     0.351000     0.632554    Uiso  ? O
   O167       1.0     0.861111     0.373974     0.606648    Uiso  ? O
   O168       1.0     0.873893     0.337571     0.622353    Uiso  ? O
   O169       1.0     0.866674     0.397505     0.626556    Uiso  ? O
   O170       1.0     0.874062     0.377910     0.662898    Uiso  ? O
   O171       1.0     0.237357     0.531241     0.592933    Uiso  ? O
   O172       1.0     0.255687     0.539227     0.629569    Uiso  ? O
   O173       1.0     0.229065     0.468290     0.603177    Uiso  ? O
   O174       1.0     0.265254     0.475957     0.622235    Uiso  ? O
   O175       1.0     0.206690     0.468721     0.625107    Uiso  ? O
   O176       1.0     0.225462     0.475814     0.662038    Uiso  ? O
   O177       1.0     0.197053     0.525818     0.638648    Uiso  ? O
   O178       1.0     0.234242     0.536237     0.653129    Uiso  ? O
   O179       1.0     0.240949     0.406487     0.473804    Uiso  ? O
   O180       1.0     0.254888     0.368763     0.465972    Uiso  ? O
   O181       1.0     0.195297     0.366875     0.476469    Uiso  ? O
   O182       1.0     0.228551     0.343436     0.467405    Uiso  ? O
   O183       1.0     0.204485     0.375197     0.531862    Uiso  ? O
   O184       1.0     0.227245     0.341488     0.530118    Uiso  ? O
   O185       1.0     0.228168     0.398737     0.532677    Uiso  ? O
   O186       1.0     0.263319     0.376478     0.527548    Uiso  ? O
   O187       1.0     0.127570     0.640990     0.593516    Uiso  ? O
   O188       1.0     0.137988     0.654175     0.630205    Uiso  ? O
   O189       1.0     0.129441     0.597246     0.640006    Uiso  ? O
   O190       1.0     0.141408     0.634602     0.653242    Uiso  ? O
   O191       1.0     0.868145     0.602586     0.628604    Uiso  ? O
   O192       1.0     0.871620     0.625162     0.663293    Uiso  ? O
   O193       1.0     0.868366     0.627187     0.603708    Uiso  ? O
   O194       1.0     0.876111     0.663597     0.623307    Uiso  ? O
   O195       1.0     0.806061     0.519431     0.641118    Uiso  ? O
   O196       1.0     0.770115     0.532886     0.652350    Uiso  ? O
   O197       1.0     0.796200     0.467381     0.631459    Uiso  ? O
   O198       1.0     0.777815     0.475129     0.666554    Uiso  ? O
   O199       1.0     0.773125     0.464944     0.603953    Uiso  ? O
   O200       1.0     0.738494     0.471208     0.625779    Uiso  ? O
   O201       1.0     0.757177     0.522576     0.596627    Uiso  ? O
   O202       1.0     0.746003     0.535729     0.633523    Uiso  ? O
   O203       1.0     0.208079     0.631283     0.463014    Uiso  ? O
   O204       1.0     0.220421     0.668612     0.476458    Uiso  ? O
   O205       1.0     0.229094     0.608644     0.462426    Uiso  ? O
   O206       1.0     0.264634     0.624356     0.473238    Uiso  ? O
   O207       1.0     0.241549     0.598293     0.520957    Uiso  ? O
   O208       1.0     0.254818     0.635829     0.533308    Uiso  ? O
   O209       1.0     0.198616     0.641544     0.523843    Uiso  ? O
   O210       1.0     0.234726     0.657910     0.534024    Uiso  ? O
   O211       1.0     0.105532     0.408592     0.573108    Uiso  ? O
   O212       1.0     0.181553     0.511779     0.585195    Uiso  ? O
   O213       1.0     0.184148     0.421118     0.493228    Uiso  ? O
   O214       1.0     0.120022     0.584956     0.584826    Uiso  ? O
   O215       1.0     0.813207     0.502290     0.578583    Uiso  ? O
   O216       1.0     0.181770     0.594476     0.503386    Uiso  ? O
   Zn37       1.0     0.101499     0.388931     0.607124    Uiso  ? Zn
   Zn38       1.0     0.102736     0.348201     0.652116    Uiso  ? Zn
   Zn39       1.0     0.212555     0.504863     0.609085    Uiso  ? Zn
   Zn40       1.0     0.255711     0.502411     0.651818    Uiso  ? Zn
   Zn41       1.0     0.212041     0.394395     0.497640    Uiso  ? Zn
   Zn42       1.0     0.253384     0.348343     0.500258    Uiso  ? Zn
   Zn43       1.0     0.107154     0.612057     0.611678    Uiso  ? Zn
   Zn44       1.0     0.103278     0.654235     0.655227    Uiso  ? Zn
   Zn45       1.0     0.788590     0.499948     0.608670    Uiso  ? Zn
   Zn46       1.0     0.747520     0.499349     0.655255    Uiso  ? Zn
   Zn47       1.0     0.214077     0.616259     0.499209    Uiso  ? Zn
   Zn48       1.0     0.254225     0.655101     0.497986    Uiso  ? Zn
   H217       1.0     0.184062     0.513735     0.567357    Uiso  ? H
   H218       1.0     0.164422     0.509983     0.591382    Uiso  ? H
   H219       1.0     0.834767     0.499843     0.413920    Uiso  ? H
   H220       1.0     0.812901     0.514141     0.432736    Uiso  ? H
   H221       1.0     0.821555     0.415281     0.528077    Uiso  ? H
   H222       1.0     0.821784     0.422384     0.496609    Uiso  ? H
   H223       1.0     0.896370     0.413161     0.435567    Uiso  ? H
   H224       1.0     0.892947     0.433026     0.412004    Uiso  ? H
   H225       1.0     0.171747     0.591248     0.488259    Uiso  ? H
   H226       1.0     0.176603     0.588017     0.519698    Uiso  ? H
   H227       1.0     0.891130     0.572769     0.412006    Uiso  ? H
   H228       1.0     0.876325     0.592172     0.430721    Uiso  ? H
   H229       1.0     0.200136     0.499450     0.439008    Uiso  ? H
   H230       1.0     0.194929     0.473019     0.423805    Uiso  ? H
   H231       1.0     0.107435     0.576379     0.574718    Uiso  ? H
   H232       1.0     0.137691     0.584070     0.577761    Uiso  ? H
   H233       1.0     0.831674     0.591907     0.487109    Uiso  ? H
   H234       1.0     0.813817     0.567987     0.498321    Uiso  ? H
   H235       1.0     0.828509     0.492101     0.580567    Uiso  ? H
   H236       1.0     0.803562     0.503842     0.563558    Uiso  ? H
   H237       1.0     0.168802     0.414712     0.485687    Uiso  ? H
   H238       1.0     0.183206     0.434382     0.505406    Uiso  ? H
   H239       1.0     0.118464     0.405308     0.561114    Uiso  ? H
   H240       1.0     0.888021     0.418308     0.569457    Uiso  ? H
   C385       1.0     0.651000     0.139166     0.608535    Uiso  ? C
   C386       1.0     0.660399     0.161836     0.597582    Uiso  ? C
   C387       1.0     0.677738     0.175741     0.610545    Uiso  ? C
   H241       1.0     0.683342     0.170858     0.629881    Uiso  ? H
   C388       1.0     0.687956     0.196015     0.598298    Uiso  ? C
   H242       1.0     0.703945     0.205330     0.607804    Uiso  ? H
   C389       1.0     0.678382     0.206495     0.576350    Uiso  ? C
   H243       1.0     0.685032     0.223086     0.569637    Uiso  ? H
   C390       1.0     0.658305     0.194195     0.563809    Uiso  ? C
   C391       1.0     0.650005     0.170806     0.573833    Uiso  ? C
   H244       1.0     0.636457     0.160431     0.562530    Uiso  ? H
   C392       1.0     0.647874     0.206795     0.540449    Uiso  ? C
   C393       1.0     0.606915     0.141639     0.650441    Uiso  ? C
   C394       1.0     0.596570     0.165399     0.660582    Uiso  ? C
   C395       1.0     0.608691     0.176911     0.680970    Uiso  ? C
   H245       1.0     0.626808     0.169551     0.688895    Uiso  ? H
   C396       1.0     0.597768     0.200003     0.690396    Uiso  ? C
   H246       1.0     0.606583     0.208122     0.706526    Uiso  ? H
   C397       1.0     0.575049     0.208481     0.682538    Uiso  ? C
   H247       1.0     0.567770     0.225782     0.690986    Uiso  ? H
   C398       1.0     0.562959     0.198000     0.661538    Uiso  ? C
   C399       1.0     0.572876     0.174903     0.651820    Uiso  ? C
   H248       1.0     0.564220     0.166258     0.634635    Uiso  ? H
   C400       1.0     0.539667     0.209640     0.651104    Uiso  ? C
   C401       1.0     0.606540     0.862289     0.655484    Uiso  ? C
   C402       1.0     0.591943     0.840626     0.667738    Uiso  ? C
   C403       1.0     0.594850     0.836185     0.693513    Uiso  ? C
   H249       1.0     0.607417     0.847542     0.705072    Uiso  ? H
   C404       1.0     0.581019     0.816178     0.704512    Uiso  ? C
   H250       1.0     0.585226     0.811431     0.722504    Uiso  ? H
   C405       1.0     0.562330     0.803682     0.691625    Uiso  ? C
   H251       1.0     0.553652     0.787887     0.700790    Uiso  ? H
   C406       1.0     0.559307     0.807479     0.665316    Uiso  ? C
   C407       1.0     0.574035     0.826134     0.654240    Uiso  ? C
   H252       1.0     0.570740     0.830017     0.635190    Uiso  ? H
   C408       1.0     0.539226     0.792559     0.651960    Uiso  ? C
   C409       1.0     0.650189     0.861272     0.610277    Uiso  ? C
   C410       1.0     0.662816     0.840083     0.595992    Uiso  ? C
   C411       1.0     0.687107     0.833102     0.601538    Uiso  ? C
   H253       1.0     0.697484     0.843509     0.615437    Uiso  ? H
   C412       1.0     0.700041     0.817146     0.587437    Uiso  ? C
   H254       1.0     0.720258     0.815065     0.592105    Uiso  ? H
   C413       1.0     0.688609     0.801739     0.569288    Uiso  ? C
   H255       1.0     0.699152     0.786797     0.563641    Uiso  ? H
   C414       1.0     0.664256     0.805836     0.562245    Uiso  ? C
   C415       1.0     0.650706     0.826682     0.574754    Uiso  ? C
   H256       1.0     0.631969     0.832907     0.569217    Uiso  ? H
   C416       1.0     0.652041     0.791012     0.541406    Uiso  ? C
   C417       1.0     0.607250     0.248426     0.459519    Uiso  ? C
   C418       1.0     0.598250     0.256583     0.434033    Uiso  ? C
   C419       1.0     0.614567     0.270685     0.419010    Uiso  ? C
   H257       1.0     0.633853     0.274698     0.424710    Uiso  ? H
   C420       1.0     0.605962     0.278573     0.395086    Uiso  ? C
   H258       1.0     0.616594     0.289862     0.382093    Uiso  ? H
   C421       1.0     0.582082     0.272894     0.387844    Uiso  ? C
   H259       1.0     0.575290     0.282486     0.370439    Uiso  ? H
   C422       1.0     0.565741     0.259882     0.402672    Uiso  ? C
   C423       1.0     0.572898     0.251507     0.426407    Uiso  ? C
   H260       1.0     0.560361     0.242384     0.438035    Uiso  ? H
   C424       1.0     0.541111     0.252624     0.391976    Uiso  ? C
   C425       1.0     0.604392     0.254677     0.538977    Uiso  ? C
   C426       1.0     0.593069     0.263476     0.563199    Uiso  ? C
   C427       1.0     0.604255     0.283493     0.577062    Uiso  ? C
   H261       1.0     0.622651     0.292722     0.571390    Uiso  ? H
   C428       1.0     0.595069     0.293426     0.598961    Uiso  ? C
   H262       1.0     0.605446     0.307169     0.609940    Uiso  ? H
   C429       1.0     0.572138     0.284107     0.607720    Uiso  ? C
   H263       1.0     0.564008     0.294028     0.624492    Uiso  ? H
   C430       1.0     0.559005     0.264499     0.594761    Uiso  ? C
   C431       1.0     0.571188     0.253177     0.573553    Uiso  ? C
   H264       1.0     0.562667     0.236612     0.567301    Uiso  ? H
   C432       1.0     0.534532     0.256152     0.605150    Uiso  ? C
   C433       1.0     0.649196     0.207898     0.463928    Uiso  ? C
   C434       1.0     0.659757     0.194000     0.442321    Uiso  ? C
   C435       1.0     0.683730     0.200723     0.434606    Uiso  ? C
   H265       1.0     0.696169     0.213794     0.446152    Uiso  ? H
   C436       1.0     0.694034     0.188560     0.413658    Uiso  ? C
   H266       1.0     0.713747     0.192615     0.410019    Uiso  ? H
   C437       1.0     0.682173     0.169344     0.400949    Uiso  ? C
   H267       1.0     0.690027     0.159383     0.384045    Uiso  ? H
   C438       1.0     0.660319     0.160131     0.410022    Uiso  ? C
   C439       1.0     0.648007     0.174154     0.429779    Uiso  ? C
   H268       1.0     0.630545     0.168218     0.436363    Uiso  ? H
   C440       1.0     0.647377     0.139398     0.396268    Uiso  ? C
   C441       1.0     0.456133     0.251639     0.611434    Uiso  ? C
   C442       1.0     0.432647     0.262393     0.600467    Uiso  ? C
   C443       1.0     0.416502     0.278054     0.615477    Uiso  ? C
   H269       1.0     0.421756     0.282064     0.634909    Uiso  ? H
   C444       1.0     0.395401     0.289623     0.605165    Uiso  ? C
   H270       1.0     0.385449     0.305646     0.615499    Uiso  ? H
   C445       1.0     0.388324     0.281743     0.581880    Uiso  ? C
   H271       1.0     0.368959     0.285422     0.577004    Uiso  ? H
   C446       1.0     0.400736     0.263033     0.567735    Uiso  ? C
   C447       1.0     0.424411     0.254257     0.576253    Uiso  ? C
   H272       1.0     0.434574     0.240092     0.565997    Uiso  ? H
   C448       1.0     0.388873     0.252862     0.542940    Uiso  ? C
   C449       1.0     0.458201     0.209412     0.649284    Uiso  ? C
   C450       1.0     0.437128     0.195473     0.660944    Uiso  ? C
   C451       1.0     0.429920     0.201251     0.685406    Uiso  ? C
   H273       1.0     0.440301     0.216371     0.694946    Uiso  ? H
   C452       1.0     0.410688     0.187670     0.697868    Uiso  ? C
   H274       1.0     0.403038     0.193854     0.715165    Uiso  ? H
   C453       1.0     0.400680     0.166361     0.686666    Uiso  ? C
   H275       1.0     0.383639     0.158396     0.695669    Uiso  ? H
   C454       1.0     0.406674     0.159959     0.661819    Uiso  ? C
   C455       1.0     0.426098     0.174320     0.649139    Uiso  ? C
   H276       1.0     0.430851     0.169494     0.630224    Uiso  ? H
   C456       1.0     0.390375     0.140562     0.648340    Uiso  ? C
   C457       1.0     0.605993     0.141138     0.353400    Uiso  ? C
   C458       1.0     0.594717     0.163764     0.342512    Uiso  ? C
   C459       1.0     0.604961     0.176052     0.321130    Uiso  ? C
   H277       1.0     0.622820     0.167705     0.312881    Uiso  ? H
   C460       1.0     0.595423     0.197499     0.310267    Uiso  ? C
   H278       1.0     0.605454     0.205834     0.294478    Uiso  ? H
   C461       1.0     0.574476     0.208281     0.319693    Uiso  ? C
   H279       1.0     0.568534     0.225977     0.311363    Uiso  ? H
   C462       1.0     0.562156     0.197695     0.341217    Uiso  ? C
   C463       1.0     0.572353     0.175320     0.351827    Uiso  ? C
   H280       1.0     0.565258     0.169838     0.370195    Uiso  ? H
   C464       1.0     0.538792     0.208191     0.350377    Uiso  ? C
   C465       1.0     0.650483     0.862643     0.396845    Uiso  ? C
   C466       1.0     0.662282     0.839815     0.408473    Uiso  ? C
   C467       1.0     0.682289     0.829376     0.396728    Uiso  ? C
   H281       1.0     0.690280     0.838032     0.379641    Uiso  ? H
   C468       1.0     0.690518     0.805057     0.404169    Uiso  ? C
   H282       1.0     0.703996     0.794449     0.391864    Uiso  ? H
   C469       1.0     0.679699     0.792623     0.424700    Uiso  ? C
   H283       1.0     0.686362     0.774123     0.430460    Uiso  ? H
   C470       1.0     0.661349     0.805164     0.438468    Uiso  ? C
   C471       1.0     0.651937     0.828172     0.429659    Uiso  ? C
   H284       1.0     0.634331     0.835187     0.438230    Uiso  ? H
   C472       1.0     0.652253     0.792432     0.460474    Uiso  ? C
   C473       1.0     0.603605     0.749527     0.537995    Uiso  ? C
   C474       1.0     0.588640     0.736484     0.558589    Uiso  ? C
   C475       1.0     0.591879     0.710516     0.562260    Uiso  ? C
   H285       1.0     0.606342     0.701579     0.551523    Uiso  ? H
   C476       1.0     0.578879     0.697507     0.580630    Uiso  ? C
   H286       1.0     0.584008     0.678672     0.584983    Uiso  ? H
   C477       1.0     0.561871     0.709810     0.597198    Uiso  ? C
   H287       1.0     0.555188     0.700184     0.611966    Uiso  ? H
   C478       1.0     0.557617     0.735941     0.593557    Uiso  ? C
   C479       1.0     0.569010     0.748541     0.572581    Uiso  ? C
   H288       1.0     0.564774     0.768069     0.569978    Uiso  ? H
   C480       1.0     0.537098     0.749126     0.607469    Uiso  ? C
   O217       1.0     0.637961     0.124876     0.595220    Uiso  ? O
   O218       1.0     0.653709     0.134604     0.632652    Uiso  ? O
   O219       1.0     0.593634     0.125811     0.638921    Uiso  ? O
   O220       1.0     0.630517     0.136955     0.653794    Uiso  ? O
   O221       1.0     0.604531     0.865734     0.631678    Uiso  ? O
   O222       1.0     0.621119     0.875986     0.668869    Uiso  ? O
   O223       1.0     0.626641     0.863814     0.609848    Uiso  ? O
   O224       1.0     0.662992     0.872869     0.627840    Uiso  ? O
   O225       1.0     0.602170     0.226815     0.467643    Uiso  ? O
   O226       1.0     0.624399     0.261543     0.471101    Uiso  ? O
   O227       1.0     0.590326     0.243228     0.522330    Uiso  ? O
   O228       1.0     0.627878     0.255221     0.535034    Uiso  ? O
   O229       1.0     0.632487     0.194284     0.526882    Uiso  ? O
   O230       1.0     0.652630     0.229974     0.534595    Uiso  ? O
   O231       1.0     0.626276     0.203321     0.471061    Uiso  ? O
   O232       1.0     0.661522     0.225114     0.474834    Uiso  ? O
   O233       1.0     0.463155     0.230342     0.604816    Uiso  ? O
   O234       1.0     0.468423     0.264441     0.628439    Uiso  ? O
   O235       1.0     0.464071     0.204782     0.626856    Uiso  ? O
   O236       1.0     0.469715     0.226299     0.661214    Uiso  ? O
   O237       1.0     0.524352     0.196864     0.638116    Uiso  ? O
   O238       1.0     0.535836     0.233276     0.653781    Uiso  ? O
   O239       1.0     0.521703     0.239777     0.591931    Uiso  ? O
   O240       1.0     0.529748     0.258010     0.628868    Uiso  ? O
   O241       1.0     0.601067     0.133933     0.375592    Uiso  ? O
   O242       1.0     0.623097     0.130208     0.340580    Uiso  ? O
   O243       1.0     0.623607     0.134644     0.398500    Uiso  ? O
   O244       1.0     0.659105     0.127437     0.379284    Uiso  ? O
   O245       1.0     0.637487     0.877498     0.410436    Uiso  ? O
   O246       1.0     0.653576     0.867328     0.372857    Uiso  ? O
   O247       1.0     0.595727     0.873937     0.362566    Uiso  ? O
   O248       1.0     0.633447     0.864904     0.347667    Uiso  ? O
   O249       1.0     0.638356     0.805205     0.476005    Uiso  ? O
   O250       1.0     0.655715     0.768779     0.465052    Uiso  ? O
   O251       1.0     0.628962     0.792585     0.537589    Uiso  ? O
   O252       1.0     0.665465     0.779029     0.525258    Uiso  ? O
   O253       1.0     0.602663     0.773288     0.537635    Uiso  ? O
   O254       1.0     0.620876     0.738651     0.525535    Uiso  ? O
   O255       1.0     0.598248     0.754301     0.478766    Uiso  ? O
   O256       1.0     0.636477     0.748129     0.464376    Uiso  ? O
   O257       1.0     0.465296     0.203203     0.371364    Uiso  ? O
   O258       1.0     0.471849     0.222505     0.335006    Uiso  ? O
   O259       1.0     0.463150     0.226977     0.391896    Uiso  ? O
   O260       1.0     0.475421     0.263593     0.379104    Uiso  ? O
   O261       1.0     0.523085     0.245358     0.405933    Uiso  ? O
   O262       1.0     0.536415     0.252030     0.367584    Uiso  ? O
   O263       1.0     0.524683     0.195960     0.365141    Uiso  ? O
   O264       1.0     0.534143     0.231162     0.346196    Uiso  ? O
   O265       1.0     0.582931     0.106446     0.584791    Uiso  ? O
   O266       1.0     0.578422     0.183329     0.508356    Uiso  ? O
   O267       1.0     0.510844     0.193574     0.576833    Uiso  ? O
   O268       1.0     0.579314     0.890835     0.414834    Uiso  ? O
   O269       1.0     0.598769     0.814623     0.485767    Uiso  ? O
   O270       1.0     0.508651     0.206126     0.425474    Uiso  ? O
   Zn49       1.0     0.610719     0.101455     0.610872    Uiso  ? Zn
   Zn50       1.0     0.651551     0.100000     0.656604    Uiso  ? Zn
   Zn51       1.0     0.605119     0.211624     0.505031    Uiso  ? Zn
   Zn52       1.0     0.651236     0.254355     0.501051    Uiso  ? Zn
   Zn53       1.0     0.500759     0.212685     0.611281    Uiso  ? Zn
   Zn54       1.0     0.497799     0.255446     0.653064    Uiso  ? Zn
   Zn55       1.0     0.608944     0.897958     0.391759    Uiso  ? Zn
   Zn56       1.0     0.651738     0.101585     0.348079    Uiso  ? Zn
   Zn57       1.0     0.615635     0.782916     0.500846    Uiso  ? Zn
   Zn58       1.0     0.654975     0.747755     0.501137    Uiso  ? Zn
   Zn59       1.0     0.501152     0.216549     0.388530    Uiso  ? Zn
   Zn60       1.0     0.499172     0.253043     0.348094    Uiso  ? Zn
   C481       1.0     0.346654     0.860441     0.392263    Uiso  ? C
   C482       1.0     0.335651     0.838011     0.405870    Uiso  ? C
   C483       1.0     0.315386     0.824712     0.396019    Uiso  ? C
   H289       1.0     0.307457     0.831350     0.378651    Uiso  ? H
   C484       1.0     0.307896     0.801824     0.406684    Uiso  ? C
   H290       1.0     0.292346     0.791486     0.397897    Uiso  ? H
   C485       1.0     0.317522     0.793660     0.429850    Uiso  ? C
   H291       1.0     0.309300     0.777748     0.438213    Uiso  ? H
   C486       1.0     0.337398     0.806651     0.440898    Uiso  ? C
   C487       1.0     0.347233     0.828203     0.428361    Uiso  ? C
   H292       1.0     0.364293     0.836919     0.434883    Uiso  ? H
   C488       1.0     0.348821     0.795670     0.464117    Uiso  ? C
   C489       1.0     0.396339     0.862398     0.348060    Uiso  ? C
   C490       1.0     0.408888     0.838169     0.338363    Uiso  ? C
   C491       1.0     0.399936     0.828027     0.316307    Uiso  ? C
   H293       1.0     0.384316     0.837341     0.307220    Uiso  ? H
   C492       1.0     0.409817     0.805724     0.306000    Uiso  ? C
   H294       1.0     0.401429     0.798574     0.290200    Uiso  ? H
   C493       1.0     0.430545     0.795035     0.318215    Uiso  ? C
   H295       1.0     0.437897     0.777562     0.309617    Uiso  ? H
   C494       1.0     0.441400     0.804600     0.339492    Uiso  ? C
   C495       1.0     0.429800     0.826641     0.350362    Uiso  ? C
   H296       1.0     0.434672     0.832796     0.369208    Uiso  ? H
   C496       1.0     0.464069     0.793014     0.350892    Uiso  ? C
   C497       1.0     0.391555     0.139356     0.352246    Uiso  ? C
   C498       1.0     0.403412     0.162712     0.339640    Uiso  ? C
   C499       1.0     0.391986     0.172538     0.317276    Uiso  ? C
   H297       1.0     0.374028     0.165177     0.311060    Uiso  ? H
   C500       1.0     0.402176     0.192893     0.305465    Uiso  ? C
   H298       1.0     0.392162     0.199599     0.288703    Uiso  ? H
   C501       1.0     0.424915     0.203236     0.314800    Uiso  ? C
   H299       1.0     0.432544     0.220701     0.307789    Uiso  ? H
   C502       1.0     0.436605     0.193931     0.337242    Uiso  ? C
   C503       1.0     0.424894     0.173534     0.348266    Uiso  ? C
   H300       1.0     0.435129     0.162452     0.362214    Uiso  ? H
   C504       1.0     0.458588     0.207098     0.348260    Uiso  ? C
   C505       1.0     0.347778     0.136460     0.395644    Uiso  ? C
   C506       1.0     0.334883     0.157289     0.411626    Uiso  ? C
   C507       1.0     0.309867     0.162393     0.406902    Uiso  ? C
   H301       1.0     0.297847     0.149493     0.395352    Uiso  ? H
   C508       1.0     0.296953     0.181007     0.419523    Uiso  ? C
   H302       1.0     0.277620     0.184865     0.414377    Uiso  ? H
   C509       1.0     0.309248     0.194079     0.439298    Uiso  ? C
   H303       1.0     0.298469     0.207809     0.450071    Uiso  ? H
   C510       1.0     0.334092     0.190698     0.444547    Uiso  ? C
   C511       1.0     0.347615     0.172747     0.429936    Uiso  ? C
   H304       1.0     0.366755     0.169259     0.434250    Uiso  ? H
   C512       1.0     0.345258     0.206233     0.464447    Uiso  ? C
   C513       1.0     0.393380     0.751617     0.538244    Uiso  ? C
   C514       1.0     0.404345     0.741292     0.562232    Uiso  ? C
   C515       1.0     0.390267     0.724082     0.575423    Uiso  ? C
   H305       1.0     0.372996     0.715356     0.568734    Uiso  ? H
   C516       1.0     0.399700     0.715077     0.599197    Uiso  ? C
   H306       1.0     0.388116     0.701454     0.609143    Uiso  ? H
   C517       1.0     0.423319     0.721806     0.607398    Uiso  ? C
   H307       1.0     0.429592     0.712442     0.623282    Uiso  ? H
   C518       1.0     0.436996     0.740122     0.594503    Uiso  ? C
   C519       1.0     0.428039     0.749450     0.570687    Uiso  ? C
   H308       1.0     0.438531     0.762431     0.558976    Uiso  ? H
   C520       1.0     0.461076     0.749302     0.607420    Uiso  ? C
   C521       1.0     0.393118     0.753105     0.459436    Uiso  ? C
   C522       1.0     0.408069     0.740236     0.439049    Uiso  ? C
   C523       1.0     0.399325     0.716746     0.429496    Uiso  ? C
   H309       1.0     0.385812     0.705136     0.438721    Uiso  ? H
   C524       1.0     0.411756     0.706092     0.410135    Uiso  ? C
   H310       1.0     0.405166     0.687769     0.404202    Uiso  ? H
   C525       1.0     0.433544     0.716876     0.398879    Uiso  ? C
   H311       1.0     0.438360     0.709788     0.380308    Uiso  ? H
   C526       1.0     0.442245     0.740835     0.407911    Uiso  ? C
   C527       1.0     0.430096     0.751615     0.429136    Uiso  ? C
   H312       1.0     0.438171     0.768167     0.439180    Uiso  ? H
   C528       1.0     0.463938     0.753635     0.394677    Uiso  ? C
   C529       1.0     0.350151     0.793544     0.538939    Uiso  ? C
   C530       1.0     0.340472     0.804307     0.562105    Uiso  ? C
   C531       1.0     0.327053     0.788929     0.579163    Uiso  ? C
   H313       1.0     0.320513     0.769869     0.575554    Uiso  ? H
   C532       1.0     0.317684     0.798838     0.602275    Uiso  ? C
   H314       1.0     0.304158     0.786630     0.611935    Uiso  ? H
   C533       1.0     0.325476     0.821760     0.609932    Uiso  ? C
   H315       1.0     0.319265     0.829024     0.627411    Uiso  ? H
   C534       1.0     0.339942     0.836118     0.595391    Uiso  ? C
   C535       1.0     0.347191     0.828104     0.570888    Uiso  ? C
   H316       1.0     0.360746     0.839727     0.560642    Uiso  ? H
   C536       1.0     0.347759     0.861795     0.605397    Uiso  ? C
   C537       1.0     0.543840     0.748969     0.392952    Uiso  ? C
   C538       1.0     0.569000     0.739472     0.404779    Uiso  ? C
   C539       1.0     0.581837     0.721293     0.391298    Uiso  ? C
   H317       1.0     0.575478     0.716158     0.371508    Uiso  ? H
   C540       1.0     0.604823     0.712554     0.399639    Uiso  ? C
   H318       1.0     0.616174     0.700482     0.386280    Uiso  ? H
   C541       1.0     0.614938     0.720041     0.421846    Uiso  ? C
   H319       1.0     0.633218     0.712968     0.426437    Uiso  ? H
   C542       1.0     0.602144     0.738265     0.436966    Uiso  ? C
   C543       1.0     0.579336     0.748841     0.426961    Uiso  ? C
   H320       1.0     0.568311     0.763855     0.437157    Uiso  ? H
   C544       1.0     0.612336     0.746039     0.461506    Uiso  ? C
   C545       1.0     0.541751     0.791444     0.346323    Uiso  ? C
   C546       1.0     0.567650     0.801561     0.340741    Uiso  ? C
   C547       1.0     0.585911     0.785490     0.328296    Uiso  ? C
   H321       1.0     0.582648     0.765192     0.326284    Uiso  ? H
   C548       1.0     0.608479     0.795371     0.319240    Uiso  ? C
   H322       1.0     0.621473     0.785628     0.307830    Uiso  ? H
   C549       1.0     0.615028     0.820100     0.325194    Uiso  ? C
   H323       1.0     0.631345     0.827527     0.315466    Uiso  ? H
   C550       1.0     0.599911     0.835861     0.340466    Uiso  ? C
   C551       1.0     0.575845     0.826476     0.348026    Uiso  ? C
   H324       1.0     0.564960     0.838038     0.358872    Uiso  ? H
   C552       1.0     0.609832     0.860250     0.349425    Uiso  ? C
   C553       1.0     0.390203     0.862806     0.649894    Uiso  ? C
   C554       1.0     0.402742     0.840370     0.661062    Uiso  ? C
   C555       1.0     0.389384     0.826375     0.679370    Uiso  ? C
   H325       1.0     0.371507     0.833791     0.685340    Uiso  ? H
   C556       1.0     0.398893     0.804547     0.690165    Uiso  ? C
   H326       1.0     0.386099     0.793499     0.702957    Uiso  ? H
   C557       1.0     0.422279     0.795236     0.681114    Uiso  ? C
   H327       1.0     0.429032     0.776645     0.686758    Uiso  ? H
   C558       1.0     0.436064     0.808307     0.662154    Uiso  ? C
   C559       1.0     0.426546     0.831086     0.652962    Uiso  ? C
   H328       1.0     0.436843     0.840877     0.638462    Uiso  ? H
   C560       1.0     0.458877     0.795103     0.650044    Uiso  ? C
   C561       1.0     0.344915     0.140448     0.605468    Uiso  ? C
   C562       1.0     0.332931     0.163102     0.592137    Uiso  ? C
   C563       1.0     0.309455     0.172070     0.600491    Uiso  ? C
   H329       1.0     0.298585     0.164907     0.617462    Uiso  ? H
   C564       1.0     0.298036     0.191225     0.587913    Uiso  ? C
   H330       1.0     0.279758     0.198963     0.593362    Uiso  ? H
   C565       1.0     0.309125     0.202424     0.566943    Uiso  ? C
   H331       1.0     0.300653     0.218616     0.557038    Uiso  ? H
   C566       1.0     0.333418     0.194863     0.558467    Uiso  ? C
   C567       1.0     0.344511     0.174346     0.571152    Uiso  ? C
   H332       1.0     0.362370     0.166841     0.565519    Uiso  ? H
   C568       1.0     0.345569     0.206756     0.536309    Uiso  ? C
   C569       1.0     0.390690     0.250268     0.461600    Uiso  ? C
   C570       1.0     0.406293     0.261158     0.440798    Uiso  ? C
   C571       1.0     0.406488     0.287813     0.437007    Uiso  ? C
   H333       1.0     0.395028     0.299013     0.448533    Uiso  ? H
   C572       1.0     0.423753     0.300980     0.421876    Uiso  ? C
   H334       1.0     0.424933     0.321376     0.420907    Uiso  ? H
   C573       1.0     0.437856     0.287761     0.405647    Uiso  ? C
   H335       1.0     0.449406     0.297910     0.393574    Uiso  ? H
   C574       1.0     0.438737     0.261295     0.405789    Uiso  ? C
   C575       1.0     0.423236     0.247683     0.424283    Uiso  ? C
   H336       1.0     0.424915     0.227667     0.426309    Uiso  ? H
   C576       1.0     0.459519     0.249601     0.390673    Uiso  ? C
   O271       1.0     0.359708     0.876145     0.404624    Uiso  ? O
   O272       1.0     0.343518     0.863220     0.369680    Uiso  ? O
   O273       1.0     0.408837     0.876537     0.362155    Uiso  ? O
   O274       1.0     0.372996     0.867002     0.342794    Uiso  ? O
   O275       1.0     0.394852     0.135144     0.375970    Uiso  ? O
   O276       1.0     0.375892     0.125799     0.340715    Uiso  ? O
   O277       1.0     0.371565     0.133359     0.398392    Uiso  ? O
   O278       1.0     0.335147     0.122758     0.379741    Uiso  ? O
   O279       1.0     0.407548     0.764259     0.523853    Uiso  ? O
   O280       1.0     0.370673     0.747373     0.532730    Uiso  ? O
   O281       1.0     0.395770     0.776405     0.466116    Uiso  ? O
   O282       1.0     0.377553     0.739741     0.471337    Uiso  ? O
   O283       1.0     0.372234     0.797558     0.467366    Uiso  ? O
   O284       1.0     0.336085     0.780537     0.477674    Uiso  ? O
   O285       1.0     0.362403     0.806964     0.523238    Uiso  ? O
   O286       1.0     0.347512     0.770062     0.534560    Uiso  ? O
   O287       1.0     0.529491     0.762498     0.406019    Uiso  ? O
   O288       1.0     0.539429     0.745869     0.369800    Uiso  ? O
   O289       1.0     0.525041     0.804995     0.357785    Uiso  ? O
   O290       1.0     0.538310     0.767569     0.345456    Uiso  ? O
   O291       1.0     0.470983     0.797347     0.373670    Uiso  ? O
   O292       1.0     0.476054     0.775882     0.337143    Uiso  ? O
   O293       1.0     0.470343     0.776772     0.399677    Uiso  ? O
   O294       1.0     0.475441     0.740436     0.377778    Uiso  ? O
   O295       1.0     0.404304     0.878535     0.638813    Uiso  ? O
   O296       1.0     0.366069     0.865749     0.652584    Uiso  ? O
   O297       1.0     0.362261     0.874641     0.592390    Uiso  ? O
   O298       1.0     0.340982     0.868038     0.628085    Uiso  ? O
   O299       1.0     0.367807     0.135221     0.602037    Uiso  ? O
   O300       1.0     0.331764     0.127221     0.621042    Uiso  ? O
   O301       1.0     0.390353     0.138074     0.624816    Uiso  ? O
   O302       1.0     0.374474     0.126951     0.660860    Uiso  ? O
   O303       1.0     0.361221     0.195060     0.523278    Uiso  ? O
   O304       1.0     0.342439     0.229853     0.532793    Uiso  ? O
   O305       1.0     0.369008     0.205529     0.467678    Uiso  ? O
   O306       1.0     0.331800     0.222081     0.477861    Uiso  ? O
   O307       1.0     0.392325     0.226599     0.464726    Uiso  ? O
   O308       1.0     0.376671     0.263837     0.475340    Uiso  ? O
   O309       1.0     0.402733     0.238258     0.529199    Uiso  ? O
   O310       1.0     0.365852     0.255633     0.537491    Uiso  ? O
   O311       1.0     0.536006     0.794157     0.628175    Uiso  ? O
   O312       1.0     0.525226     0.777731     0.664357    Uiso  ? O
   O313       1.0     0.535055     0.772452     0.607926    Uiso  ? O
   O314       1.0     0.522705     0.735596     0.622031    Uiso  ? O
   O315       1.0     0.475986     0.762191     0.594374    Uiso  ? O
   O316       1.0     0.465422     0.745168     0.631125    Uiso  ? O
   O317       1.0     0.475288     0.807308     0.637640    Uiso  ? O
   O318       1.0     0.463757     0.771229     0.655654    Uiso  ? O
   O319       1.0     0.417915     0.889149     0.415882    Uiso  ? O
   O320       1.0     0.418724     0.815007     0.511081    Uiso  ? O
   O321       1.0     0.517848     0.819622     0.416410    Uiso  ? O
   O322       1.0     0.390799     0.884024     0.577736    Uiso  ? O
   O323       1.0     0.415903     0.183631     0.506335    Uiso  ? O
   O324       1.0     0.496202     0.807329     0.579047    Uiso  ? O
   Zn61       1.0     0.389974     0.897741     0.389230    Uiso  ? Zn
   Zn62       1.0     0.345854     0.899103     0.347854    Uiso  ? Zn
   Zn63       1.0     0.389914     0.790929     0.503029    Uiso  ? Zn
   Zn64       1.0     0.349375     0.749416     0.498651    Uiso  ? Zn
   Zn65       1.0     0.506914     0.791572     0.390590    Uiso  ? Zn
   Zn66       1.0     0.503694     0.747116     0.348009    Uiso  ? Zn
   Zn67       1.0     0.382242     0.100215     0.613555    Uiso  ? Zn
   Zn68       1.0     0.343312     0.102595     0.652211    Uiso  ? Zn
   Zn69       1.0     0.386820     0.210904     0.501601    Uiso  ? Zn
   Zn70       1.0     0.345599     0.253518     0.499857    Uiso  ? Zn
   Zn71       1.0     0.499759     0.788082     0.610316    Uiso  ? Zn
   Zn72       1.0     0.497983     0.747122     0.654101    Uiso  ? Zn
   H337       1.0     0.431731     0.814380     0.499427    Uiso  ? H
   H338       1.0     0.420780     0.824781     0.526080    Uiso  ? H
   H339       1.0     0.563546     0.184441     0.498232    Uiso  ? H
   H340       1.0     0.582459     0.169607     0.519044    Uiso  ? H
   H341       1.0     0.497406     0.207810     0.440225    Uiso  ? H
   H342       1.0     0.527036     0.205509     0.429359    Uiso  ? H
   H343       1.0     0.564430     0.890947     0.403955    Uiso  ? H
   H344       1.0     0.579925     0.896357     0.431809    Uiso  ? H
   H345       1.0     0.490037     0.824328     0.580739    Uiso  ? H
   H346       1.0     0.504221     0.800022     0.564313    Uiso  ? H
   H347       1.0     0.568137     0.116259     0.587413    Uiso  ? H
   H348       1.0     0.585020     0.896784     0.569992    Uiso  ? H
   H349       1.0     0.602206     0.831762     0.488289    Uiso  ? H
   H350       1.0     0.584252     0.810884     0.474587    Uiso  ? H
   H351       1.0     0.388285     0.895377     0.563448    Uiso  ? H
   H352       1.0     0.405308     0.873075     0.576850    Uiso  ? H
   H353       1.0     0.527851     0.190667     0.572789    Uiso  ? H
   H354       1.0     0.496631     0.189226     0.566971    Uiso  ? H
   H355       1.0     0.426254     0.185822     0.520071    Uiso  ? H
   H356       1.0     0.417619     0.171040     0.493713    Uiso  ? H
   H357       1.0     0.535532     0.820928     0.422649    Uiso  ? H
   H358       1.0     0.509477     0.835312     0.416206    Uiso  ? H
   H359       1.0     0.427535     0.101833     0.422737    Uiso  ? H
   H360       1.0     0.425209     0.873716     0.411699    Uiso  ? H
   C577       1.0     0.650547     0.392552     0.140489    Uiso  ? C
   C578       1.0     0.660398     0.403572     0.164703    Uiso  ? C
   C579       1.0     0.682085     0.394303     0.175546    Uiso  ? C
   H361       1.0     0.691352     0.378874     0.165897    Uiso  ? H
   C580       1.0     0.690321     0.403857     0.197949    Uiso  ? C
   H362       1.0     0.705230     0.393163     0.207041    Uiso  ? H
   C581       1.0     0.678933     0.423317     0.209689    Uiso  ? C
   H363       1.0     0.685388     0.429637     0.228483    Uiso  ? H
   C582       1.0     0.659514     0.436684     0.198142    Uiso  ? C
   C583       1.0     0.648887     0.424701     0.176723    Uiso  ? C
   H364       1.0     0.636243     0.435905     0.165889    Uiso  ? H
   C584       1.0     0.648737     0.459872     0.209782    Uiso  ? C
   C585       1.0     0.607514     0.349325     0.140990    Uiso  ? C
   C586       1.0     0.595710     0.338062     0.164493    Uiso  ? C
   C587       1.0     0.607108     0.316867     0.176354    Uiso  ? C
   H365       1.0     0.623339     0.308358     0.167224    Uiso  ? H
   C588       1.0     0.597133     0.306621     0.198634    Uiso  ? C
   H366       1.0     0.607046     0.291348     0.207124    Uiso  ? H
   C589       1.0     0.576270     0.317997     0.210890    Uiso  ? C
   H367       1.0     0.570225     0.311039     0.228539    Uiso  ? H
   C590       1.0     0.563484     0.336788     0.198560    Uiso  ? C
   C591       1.0     0.573876     0.347665     0.176197    Uiso  ? C
   H368       1.0     0.564716     0.362490     0.167293    Uiso  ? H
   C592       1.0     0.540474     0.348109     0.211345    Uiso  ? C
   C593       1.0     0.603393     0.351773     0.862596    Uiso  ? C
   C594       1.0     0.589229     0.340358     0.840657    Uiso  ? C
   C595       1.0     0.598235     0.316968     0.831797    Uiso  ? C
   H369       1.0     0.613675     0.306341     0.840526    Uiso  ? H
   C596       1.0     0.586904     0.304924     0.811417    Uiso  ? C
   H370       1.0     0.592494     0.286034     0.806459    Uiso  ? H
   C597       1.0     0.567181     0.316417     0.798243    Uiso  ? C
   H371       1.0     0.558610     0.306062     0.782803    Uiso  ? H
   C598       1.0     0.558211     0.339987     0.805485    Uiso  ? C
   C599       1.0     0.569124     0.351865     0.827204    Uiso  ? C
   H372       1.0     0.560835     0.369683     0.834045    Uiso  ? H
   C600       1.0     0.536482     0.351206     0.790801    Uiso  ? C
   C601       1.0     0.646298     0.392606     0.857235    Uiso  ? C
   C602       1.0     0.657489     0.405582     0.834137    Uiso  ? C
   C603       1.0     0.679071     0.395572     0.823194    Uiso  ? C
   H373       1.0     0.683591     0.377235     0.828969    Uiso  ? H
   C604       1.0     0.688317     0.405151     0.801486    Uiso  ? C
   H374       1.0     0.701984     0.394560     0.789642    Uiso  ? H
   C605       1.0     0.680669     0.427893     0.791918    Uiso  ? C
   H375       1.0     0.691998     0.438216     0.778369    Uiso  ? H
   C606       1.0     0.658451     0.439908     0.801875    Uiso  ? C
   C607       1.0     0.646894     0.428286     0.824175    Uiso  ? C
   H376       1.0     0.630648     0.437238     0.833537    Uiso  ? H
   C608       1.0     0.649912     0.463562     0.790477    Uiso  ? C
   C609       1.0     0.607314     0.536791     0.251833    Uiso  ? C
   C610       1.0     0.592477     0.557842     0.264158    Uiso  ? C
   C611       1.0     0.596652     0.562450     0.289437    Uiso  ? C
   H377       1.0     0.613917     0.554525     0.299163    Uiso  ? H
   C612       1.0     0.580440     0.579378     0.303075    Uiso  ? C
   H378       1.0     0.587016     0.583883     0.321705    Uiso  ? H
   C613       1.0     0.562219     0.593354     0.291100    Uiso  ? C
   H379       1.0     0.552159     0.606705     0.300674    Uiso  ? H
   C614       1.0     0.559359     0.590242     0.265074    Uiso  ? C
   C615       1.0     0.573829     0.572522     0.252146    Uiso  ? C
   H380       1.0     0.570791     0.569722     0.233197    Uiso  ? H
   C616       1.0     0.539517     0.604778     0.253383    Uiso  ? C
   C617       1.0     0.605255     0.460589     0.254800    Uiso  ? C
   C618       1.0     0.592612     0.437939     0.264590    Uiso  ? C
   C619       1.0     0.603920     0.426941     0.284596    Uiso  ? C
   H381       1.0     0.617794     0.437137     0.294131    Uiso  ? H
   C620       1.0     0.597152     0.403010     0.292229    Uiso  ? C
   H382       1.0     0.605315     0.394285     0.309250    Uiso  ? H
   C621       1.0     0.576860     0.390999     0.281924    Uiso  ? C
   H383       1.0     0.571387     0.373112     0.289896    Uiso  ? H
   C622       1.0     0.562360     0.402515     0.263526    Uiso  ? C
   C623       1.0     0.571301     0.426318     0.253152    Uiso  ? C
   H384       1.0     0.560854     0.434992     0.238265    Uiso  ? H
   C624       1.0     0.539642     0.390626     0.253814    Uiso  ? C
   C625       1.0     0.651532     0.533236     0.205858    Uiso  ? C
   C626       1.0     0.664642     0.553742     0.193857    Uiso  ? C
   C627       1.0     0.690261     0.559837     0.200385    Uiso  ? C
   H385       1.0     0.700680     0.551132     0.214300    Uiso  ? H
   C628       1.0     0.701652     0.579608     0.187950    Uiso  ? C
   H386       1.0     0.721416     0.582341     0.190323    Uiso  ? H
   C629       1.0     0.689415     0.595159     0.171371    Uiso  ? C
   H387       1.0     0.701738     0.608157     0.161301    Uiso  ? H
   C630       1.0     0.665480     0.589826     0.163379    Uiso  ? C
   C631       1.0     0.652135     0.569240     0.175774    Uiso  ? C
   H388       1.0     0.632808     0.566341     0.170938    Uiso  ? H
   C632       1.0     0.653207     0.605188     0.143014    Uiso  ? C
   C633       1.0     0.462736     0.394526     0.255779    Uiso  ? C
   C634       1.0     0.440836     0.406661     0.268292    Uiso  ? C
   C635       1.0     0.431635     0.397276     0.290687    Uiso  ? C
   H389       1.0     0.439276     0.381924     0.303042    Uiso  ? H
   C636       1.0     0.409989     0.408397     0.301650    Uiso  ? C
   H390       1.0     0.403536     0.401444     0.320503    Uiso  ? H
   C637       1.0     0.397036     0.428271     0.290475    Uiso  ? C
   H391       1.0     0.380118     0.435255     0.299143    Uiso  ? H
   C638       1.0     0.406867     0.438844     0.267984    Uiso  ? C
   C639       1.0     0.429927     0.428552     0.257976    Uiso  ? C
   H392       1.0     0.438600     0.436448     0.241523    Uiso  ? H
   C640       1.0     0.394560     0.461267     0.254781    Uiso  ? C
   C641       1.0     0.459887     0.351060     0.211608    Uiso  ? C
   C642       1.0     0.437693     0.339386     0.199063    Uiso  ? C
   C643       1.0     0.424729     0.320254     0.210059    Uiso  ? C
   H393       1.0     0.431783     0.314503     0.228215    Uiso  ? H
   C644       1.0     0.403223     0.308872     0.199246    Uiso  ? C
   H394       1.0     0.393269     0.294437     0.209606    Uiso  ? H
   C645       1.0     0.393309     0.318684     0.177431    Uiso  ? C
   H395       1.0     0.377224     0.311249     0.168527    Uiso  ? H
   C646       1.0     0.405364     0.339603     0.166067    Uiso  ? C
   C647       1.0     0.428123     0.349376     0.176792    Uiso  ? C
   H396       1.0     0.436373     0.366416     0.169292    Uiso  ? H
   C648       1.0     0.394071     0.349417     0.141018    Uiso  ? C
   C649       1.0     0.609972     0.649483     0.143257    Uiso  ? C
   C650       1.0     0.594865     0.661677     0.164146    Uiso  ? C
   C651       1.0     0.599788     0.687203     0.171616    Uiso  ? C
   H397       1.0     0.616448     0.698283     0.164729    Uiso  ? H
   C652       1.0     0.586252     0.697747     0.190463    Uiso  ? C
   H398       1.0     0.591207     0.716966     0.196619    Uiso  ? H
   C653       1.0     0.566222     0.684213     0.202363    Uiso  ? C
   H399       1.0     0.557079     0.693105     0.216939    Uiso  ? H
   C654       1.0     0.559447     0.659958     0.194806    Uiso  ? C
   C655       1.0     0.574138     0.648987     0.175292    Uiso  ? C
   H400       1.0     0.568540     0.631229     0.169005    Uiso  ? H
   C656       1.0     0.538087     0.646909     0.208163    Uiso  ? C
   C657       1.0     0.653504     0.611002     0.860466    Uiso  ? C
   C658       1.0     0.660469     0.601292     0.834643    Uiso  ? C
   C659       1.0     0.677698     0.614153     0.819588    Uiso  ? C
   H401       1.0     0.687647     0.630555     0.826408    Uiso  ? H
   C660       1.0     0.685640     0.604267     0.796625    Uiso  ? C
   H402       1.0     0.699195     0.614153     0.785807    Uiso  ? H
   C661       1.0     0.674551     0.583345     0.786253    Uiso  ? C
   H403       1.0     0.680720     0.576418     0.768200    Uiso  ? H
   C662       1.0     0.656638     0.570308     0.800165    Uiso  ? C
   C663       1.0     0.650039     0.579453     0.824256    Uiso  ? C
   H404       1.0     0.633546     0.570653     0.834034    Uiso  ? H
   C664       1.0     0.647879     0.546301     0.790089    Uiso  ? C
   C665       1.0     0.605437     0.463740     0.749665    Uiso  ? C
   C666       1.0     0.593810     0.440917     0.737643    Uiso  ? C
   C667       1.0     0.604885     0.427886     0.718091    Uiso  ? C
   H405       1.0     0.622631     0.434080     0.711527    Uiso  ? H
   C668       1.0     0.594784     0.405773     0.708762    Uiso  ? C
   H406       1.0     0.604620     0.394519     0.695528    Uiso  ? H
   C669       1.0     0.572698     0.396422     0.717317    Uiso  ? C
   H407       1.0     0.566271     0.378938     0.709260    Uiso  ? H
   C670       1.0     0.560552     0.408303     0.737178    Uiso  ? C
   C671       1.0     0.571063     0.430615     0.747151    Uiso  ? C
   H408       1.0     0.560095     0.439730     0.762346    Uiso  ? H
   C672       1.0     0.537643     0.395455     0.748370    Uiso  ? C
   O325       1.0     0.637605     0.405947     0.125781    Uiso  ? O
   O326       1.0     0.654787     0.369057     0.136115    Uiso  ? O
   O327       1.0     0.594702     0.361347     0.125043    Uiso  ? O
   O328       1.0     0.630564     0.345193     0.136523    Uiso  ? O
   O329       1.0     0.601569     0.375967     0.865981    Uiso  ? O
   O330       1.0     0.619705     0.337354     0.874236    Uiso  ? O
   O331       1.0     0.624701     0.398477     0.864507    Uiso  ? O
   O332       1.0     0.658652     0.376450     0.869379    Uiso  ? O
   O333       1.0     0.606565     0.533347     0.228305    Uiso  ? O
   O334       1.0     0.621992     0.523029     0.265331    Uiso  ? O
   O335       1.0     0.592881     0.477243     0.243001    Uiso  ? O
   O336       1.0     0.629620     0.463251     0.255207    Uiso  ? O
   O337       1.0     0.637500     0.475797     0.196278    Uiso  ? O
   O338       1.0     0.650723     0.463080     0.233597    Uiso  ? O
   O339       1.0     0.628074     0.530359     0.201654    Uiso  ? O
   O340       1.0     0.661482     0.520324     0.223708    Uiso  ? O
   O341       1.0     0.466604     0.399207     0.232545    Uiso  ? O
   O342       1.0     0.475863     0.378410     0.267639    Uiso  ? O
   O343       1.0     0.467005     0.373225     0.206549    Uiso  ? O
   O344       1.0     0.472669     0.338403     0.227415    Uiso  ? O
   O345       1.0     0.525262     0.361907     0.197393    Uiso  ? O
   O346       1.0     0.535836     0.343056     0.235325    Uiso  ? O
   O347       1.0     0.524211     0.403450     0.241161    Uiso  ? O
   O348       1.0     0.535381     0.366706     0.256208    Uiso  ? O
   O349       1.0     0.609123     0.625585     0.139810    Uiso  ? O
   O350       1.0     0.623331     0.662900     0.128589    Uiso  ? O
   O351       1.0     0.629176     0.603854     0.138896    Uiso  ? O
   O352       1.0     0.666369     0.619623     0.129310    Uiso  ? O
   O353       1.0     0.641724     0.597579     0.876218    Uiso  ? O
   O354       1.0     0.656505     0.634561     0.865464    Uiso  ? O
   O355       1.0     0.594457     0.639087     0.882275    Uiso  ? O
   O356       1.0     0.630187     0.656910     0.869691    Uiso  ? O
   O357       1.0     0.626207     0.538030     0.797483    Uiso  ? O
   O358       1.0     0.659868     0.533354     0.773853    Uiso  ? O
   O359       1.0     0.637942     0.479025     0.803241    Uiso  ? O
   O360       1.0     0.652755     0.466782     0.766594    Uiso  ? O
   O361       1.0     0.593593     0.476646     0.765038    Uiso  ? O
   O362       1.0     0.628198     0.470650     0.744397    Uiso  ? O
   O363       1.0     0.600443     0.536301     0.772294    Uiso  ? O
   O364       1.0     0.622524     0.529922     0.736792    Uiso  ? O
   O365       1.0     0.474449     0.638785     0.198930    Uiso  ? O
   O366       1.0     0.465386     0.651098     0.236924    Uiso  ? O
   O367       1.0     0.476822     0.592930     0.241224    Uiso  ? O
   O368       1.0     0.466398     0.629423     0.259050    Uiso  ? O
   O369       1.0     0.534781     0.601871     0.229625    Uiso  ? O
   O370       1.0     0.526532     0.621987     0.266054    Uiso  ? O
   O371       1.0     0.535755     0.622597     0.208476    Uiso  ? O
   O372       1.0     0.524640     0.660263     0.223667    Uiso  ? O
   O373       1.0     0.584488     0.417568     0.110052    Uiso  ? O
   O374       1.0     0.577332     0.487323     0.196392    Uiso  ? O
   O375       1.0     0.505316     0.417888     0.187428    Uiso  ? O
   O376       1.0     0.585557     0.583283     0.897716    Uiso  ? O
   O377       1.0     0.580713     0.494227     0.816707    Uiso  ? O
   O378       1.0     0.489754     0.586333     0.184384    Uiso  ? O
   Zn73       1.0     0.610468     0.390744     0.103338    Uiso  ? Zn
   Zn74       1.0     0.651850     0.346809     0.101048    Uiso  ? Zn
   Zn75       1.0     0.610528     0.498510     0.214030    Uiso  ? Zn
   Zn76       1.0     0.650146     0.497816     0.254614    Uiso  ? Zn
   Zn77       1.0     0.501860     0.390677     0.213599    Uiso  ? Zn
   Zn78       1.0     0.499500     0.347418     0.256717    Uiso  ? Zn
   Zn79       1.0     0.612664     0.609706     0.102967    Uiso  ? Zn
   Zn80       1.0     0.654012     0.650605     0.104427    Uiso  ? Zn
   Zn81       1.0     0.609009     0.501190     0.791494    Uiso  ? Zn
   Zn82       1.0     0.652180     0.504095     0.746849    Uiso  ? Zn
   Zn83       1.0     0.498773     0.609212     0.213453    Uiso  ? Zn
   Zn84       1.0     0.499867     0.651255     0.255780    Uiso  ? Zn
   C673       1.0     0.351595     0.610324     0.865025    Uiso  ? C
   C674       1.0     0.341313     0.597581     0.841066    Uiso  ? C
   C675       1.0     0.320791     0.610326     0.829619    Uiso  ? C
   H409       1.0     0.313642     0.627640     0.837286    Uiso  ? H
   C676       1.0     0.311761     0.600869     0.806176    Uiso  ? C
   H410       1.0     0.298527     0.611933     0.795044    Uiso  ? H
   C677       1.0     0.322883     0.579664     0.795050    Uiso  ? C
   H411       1.0     0.316579     0.572737     0.776048    Uiso  ? H
   C678       1.0     0.340813     0.565561     0.807648    Uiso  ? C
   C679       1.0     0.351018     0.575772     0.829372    Uiso  ? C
   H412       1.0     0.367847     0.567536     0.837821    Uiso  ? H
   C680       1.0     0.350533     0.541710     0.795021    Uiso  ? C
   C681       1.0     0.392391     0.652231     0.866185    Uiso  ? C
   C682       1.0     0.407146     0.664622     0.843443    Uiso  ? C
   C683       1.0     0.402380     0.689614     0.837681    Uiso  ? C
   H413       1.0     0.386981     0.698564     0.846987    Uiso  ? H
   C684       1.0     0.416165     0.702068     0.819678    Uiso  ? C
   H414       1.0     0.412385     0.720695     0.813811    Uiso  ? H
   C685       1.0     0.433958     0.688789     0.805032    Uiso  ? C
   H415       1.0     0.447348     0.699468     0.793137    Uiso  ? H
   C686       1.0     0.439550     0.663635     0.808752    Uiso  ? C
   C687       1.0     0.425321     0.651532     0.828251    Uiso  ? C
   H416       1.0     0.428245     0.632062     0.830943    Uiso  ? H
   C688       1.0     0.459443     0.650687     0.793766    Uiso  ? C
   C689       1.0     0.390490     0.650680     0.149524    Uiso  ? C
   C690       1.0     0.402219     0.660092     0.172556    Uiso  ? C
   C691       1.0     0.386962     0.671378     0.190749    Uiso  ? C
   H417       1.0     0.367105     0.673118     0.186560    Uiso  ? H
   C692       1.0     0.396913     0.680463     0.213380    Uiso  ? C
   H418       1.0     0.383703     0.689743     0.226541    Uiso  ? H
   C693       1.0     0.421078     0.674561     0.220516    Uiso  ? C
   H419       1.0     0.426527     0.681115     0.238487    Uiso  ? H
   C694       1.0     0.436204     0.660565     0.203849    Uiso  ? C
   C695       1.0     0.427664     0.656258     0.178684    Uiso  ? C
   H420       1.0     0.439246     0.648157     0.164164    Uiso  ? H
   C696       1.0     0.461074     0.651483     0.213610    Uiso  ? C
   C697       1.0     0.348390     0.604280     0.143953    Uiso  ? C
   C698       1.0     0.337855     0.591703     0.166722    Uiso  ? C
   C699       1.0     0.317750     0.601374     0.179423    Uiso  ? C
   H421       1.0     0.308871     0.618755     0.173560    Uiso  ? H
   C700       1.0     0.309540     0.590798     0.201252    Uiso  ? C
   H422       1.0     0.295201     0.600288     0.212033    Uiso  ? H
   C701       1.0     0.319492     0.567955     0.210249    Uiso  ? C
   H423       1.0     0.311726     0.560408     0.228021    Uiso  ? H
   C702       1.0     0.339468     0.556832     0.197187    Uiso  ? C
   C703       1.0     0.347873     0.568791     0.175314    Uiso  ? C
   H424       1.0     0.361735     0.560837     0.162528    Uiso  ? H
   C704       1.0     0.352494     0.535047     0.209557    Uiso  ? C
   C705       1.0     0.392788     0.466216     0.746317    Uiso  ? C
   C706       1.0     0.404667     0.443523     0.734396    Uiso  ? C
   C707       1.0     0.394198     0.434936     0.711186    Uiso  ? C
   H425       1.0     0.378941     0.444532     0.701007    Uiso  ? H
   C708       1.0     0.403313     0.413597     0.699653    Uiso  ? C
   H426       1.0     0.394414     0.405526     0.683770    Uiso  ? H
   C709       1.0     0.424727     0.400704     0.710933    Uiso  ? C
   H427       1.0     0.432094     0.384475     0.701447    Uiso  ? H
   C710       1.0     0.436968     0.408813     0.732727    Uiso  ? C
   C711       1.0     0.427528     0.430635     0.743717    Uiso  ? C
   H428       1.0     0.435120     0.435873     0.762097    Uiso  ? H
   C712       1.0     0.460686     0.395783     0.742468    Uiso  ? C
   C713       1.0     0.389647     0.545178     0.747095    Uiso  ? C
   C714       1.0     0.402116     0.568354     0.736204    Uiso  ? C
   C715       1.0     0.389072     0.584765     0.720177    Uiso  ? C
   H429       1.0     0.370960     0.580627     0.712621    Uiso  ? H
   C716       1.0     0.399840     0.607642     0.712999    Uiso  ? C
   H430       1.0     0.389480     0.620284     0.699906    Uiso  ? H
   C717       1.0     0.423558     0.615133     0.721222    Uiso  ? C
   H431       1.0     0.432761     0.632814     0.716240    Uiso  ? H
   C718       1.0     0.436952     0.598713     0.737648    Uiso  ? C
   C719       1.0     0.426683     0.574839     0.742524    Uiso  ? C
   H432       1.0     0.438523     0.561122     0.752349    Uiso  ? H
   C720       1.0     0.459965     0.608361     0.750024    Uiso  ? C
   C721       1.0     0.349956     0.465443     0.792229    Uiso  ? C
   C722       1.0     0.338852     0.444094     0.806407    Uiso  ? C
   C723       1.0     0.313936     0.437201     0.801057    Uiso  ? C
   H433       1.0     0.304436     0.445076     0.785227    Uiso  ? H
   C724       1.0     0.302085     0.418720     0.815218    Uiso  ? C
   H434       1.0     0.283867     0.410918     0.810050    Uiso  ? H
   C725       1.0     0.314642     0.406623     0.834656    Uiso  ? C
   H435       1.0     0.305007     0.391786     0.845353    Uiso  ? H
   C726       1.0     0.340058     0.411538     0.839738    Uiso  ? C
   C727       1.0     0.352050     0.431259     0.826073    Uiso  ? C
   H436       1.0     0.372797     0.436036     0.829461    Uiso  ? H
   C728       1.0     0.352372     0.396774     0.860901    Uiso  ? C
   C729       1.0     0.538468     0.608893     0.749384    Uiso  ? C
   C730       1.0     0.561616     0.597430     0.737633    Uiso  ? C
   C731       1.0     0.571458     0.606870     0.714934    Uiso  ? C
   H437       1.0     0.563059     0.621414     0.704815    Uiso  ? H
   C732       1.0     0.593275     0.596978     0.705293    Uiso  ? C
   H438       1.0     0.601502     0.603545     0.688189    Uiso  ? H
   C733       1.0     0.605184     0.576081     0.717163    Uiso  ? C
   H439       1.0     0.620501     0.567416     0.706494    Uiso  ? H
   C734       1.0     0.593642     0.564511     0.738251    Uiso  ? C
   C735       1.0     0.571977     0.575815     0.748754    Uiso  ? C
   H440       1.0     0.564746     0.570669     0.767175    Uiso  ? H
   C736       1.0     0.605092     0.541381     0.749176    Uiso  ? C
   C737       1.0     0.539961     0.653568     0.797451    Uiso  ? C
   C738       1.0     0.562047     0.664946     0.811185    Uiso  ? C
   C739       1.0     0.573487     0.686457     0.801092    Uiso  ? C
   H441       1.0     0.565756     0.694132     0.783168    Uiso  ? H
   C740       1.0     0.593683     0.696808     0.812294    Uiso  ? C
   H442       1.0     0.602034     0.713371     0.803025    Uiso  ? H
   C741       1.0     0.604467     0.685393     0.833798    Uiso  ? C
   H443       1.0     0.620209     0.694784     0.843091    Uiso  ? H
   C742       1.0     0.593462     0.664416     0.844951    Uiso  ? C
   C743       1.0     0.571765     0.653514     0.833343    Uiso  ? C
   H444       1.0     0.562896     0.637157     0.840515    Uiso  ? H
   C744       1.0     0.606576     0.652871     0.867253    Uiso  ? C
   C745       1.0     0.392338     0.350413     0.859340    Uiso  ? C
   C746       1.0     0.404832     0.339223     0.836965    Uiso  ? C
   C747       1.0     0.393644     0.317258     0.825966    Uiso  ? C
   H445       1.0     0.375866     0.309150     0.834543    Uiso  ? H
   C748       1.0     0.401618     0.310492     0.802823    Uiso  ? C
   H446       1.0     0.390750     0.297242     0.791609    Uiso  ? H
   C749       1.0     0.421820     0.322445     0.790249    Uiso  ? C
   H447       1.0     0.428925     0.312922     0.774505    Uiso  ? H
   C750       1.0     0.433962     0.342653     0.800274    Uiso  ? C
   C751       1.0     0.426258     0.350254     0.824400    Uiso  ? C
   H448       1.0     0.435788     0.365372     0.834143    Uiso  ? H
   C752       1.0     0.455827     0.353590     0.786766    Uiso  ? C
   C753       1.0     0.350662     0.394528     0.140818    Uiso  ? C
   C754       1.0     0.339661     0.406929     0.163735    Uiso  ? C
   C755       1.0     0.318023     0.395765     0.174086    Uiso  ? C
   H449       1.0     0.310880     0.378964     0.164909    Uiso  ? H
   C756       1.0     0.305967     0.405402     0.194956    Uiso  ? C
   H450       1.0     0.290309     0.397046     0.203660    Uiso  ? H
   C757       1.0     0.317219     0.426395     0.206689    Uiso  ? C
   H451       1.0     0.307656     0.434033     0.221164    Uiso  ? H
   C758       1.0     0.339920     0.437128     0.198504    Uiso  ? C
   C759       1.0     0.350336     0.427921     0.175744    Uiso  ? C
   H452       1.0     0.367227     0.436105     0.167801    Uiso  ? H
   C760       1.0     0.352048     0.459042     0.211843    Uiso  ? C
   C761       1.0     0.394069     0.537200     0.256050    Uiso  ? C
   C762       1.0     0.404639     0.561334     0.264837    Uiso  ? C
   C763       1.0     0.391370     0.574732     0.282368    Uiso  ? C
   H453       1.0     0.373753     0.568916     0.289439    Uiso  ? H
   C764       1.0     0.400916     0.597480     0.292627    Uiso  ? C
   H454       1.0     0.389611     0.608509     0.304496    Uiso  ? H
   C765       1.0     0.424890     0.605263     0.285602    Uiso  ? C
   H455       1.0     0.430729     0.622562     0.292937    Uiso  ? H
   C766       1.0     0.438918     0.592306     0.266576    Uiso  ? C
   C767       1.0     0.429406     0.568860     0.258874    Uiso  ? C
   H456       1.0     0.438587     0.558582     0.243811    Uiso  ? H
   C768       1.0     0.462576     0.604900     0.256157    Uiso  ? C
   O379       1.0     0.374255     0.606245     0.870956    Uiso  ? O
   O380       1.0     0.337631     0.625454     0.877325    Uiso  ? O
   O381       1.0     0.399160     0.630566     0.873241    Uiso  ? O
   O382       1.0     0.374583     0.664367     0.876853    Uiso  ? O
   O383       1.0     0.404115     0.637592     0.136002    Uiso  ? O
   O384       1.0     0.367279     0.653535     0.143302    Uiso  ? O
   O385       1.0     0.363557     0.592078     0.129503    Uiso  ? O
   O386       1.0     0.345120     0.627662     0.139958    Uiso  ? O
   O387       1.0     0.395264     0.469490     0.770807    Uiso  ? O
   O388       1.0     0.376943     0.480647     0.734305    Uiso  ? O
   O389       1.0     0.402498     0.526940     0.755752    Uiso  ? O
   O390       1.0     0.365801     0.542353     0.745662    Uiso  ? O
   O391       1.0     0.366247     0.527864     0.806262    Uiso  ? O
   O392       1.0     0.344539     0.537114     0.772435    Uiso  ? O
   O393       1.0     0.373464     0.471118     0.793375    Uiso  ? O
   O394       1.0     0.336083     0.477910     0.777260    Uiso  ? O
   O395       1.0     0.523304     0.595710     0.761820    Uiso  ? O
   O396       1.0     0.533693     0.632239     0.745128    Uiso  ? O
   O397       1.0     0.525209     0.638965     0.809153    Uiso  ? O
   O398       1.0     0.533137     0.660636     0.775833    Uiso  ? O
   O399       1.0     0.464064     0.626615     0.795372    Uiso  ? O
   O400       1.0     0.473373     0.665096     0.780154    Uiso  ? O
   O401       1.0     0.465128     0.602165     0.772791    Uiso  ? O
   O402       1.0     0.474177     0.625903     0.739430    Uiso  ? O
   O403       1.0     0.397446     0.373225     0.865741    Uiso  ? O
   O404       1.0     0.375914     0.338245     0.872063    Uiso  ? O
   O405       1.0     0.375997     0.399198     0.864874    Uiso  ? O
   O406       1.0     0.339534     0.382340     0.875517    Uiso  ? O
   O407       1.0     0.365153     0.407547     0.125733    Uiso  ? O
   O408       1.0     0.347090     0.370411     0.136814    Uiso  ? O
   O409       1.0     0.407342     0.363183     0.126649    Uiso  ? O
   O410       1.0     0.370100     0.345901     0.135742    Uiso  ? O
   O411       1.0     0.375448     0.464171     0.209636    Uiso  ? O
   O412       1.0     0.338732     0.472650     0.226551    Uiso  ? O
   O413       1.0     0.364970     0.519082     0.197470    Uiso  ? O
   O414       1.0     0.349523     0.532298     0.233422    Uiso  ? O
   O415       1.0     0.406788     0.520641     0.245904    Uiso  ? O
   O416       1.0     0.369283     0.533997     0.256999    Uiso  ? O
   O417       1.0     0.397667     0.463766     0.231446    Uiso  ? O
   O418       1.0     0.380380     0.475406     0.267153    Uiso  ? O
   O419       1.0     0.531264     0.375519     0.793819    Uiso  ? O
   O420       1.0     0.522357     0.338732     0.774714    Uiso  ? O
   O421       1.0     0.532904     0.397396     0.771367    Uiso  ? O
   O422       1.0     0.525050     0.379601     0.735284    Uiso  ? O
   O423       1.0     0.477470     0.408487     0.753417    Uiso  ? O
   O424       1.0     0.463322     0.372065     0.741265    Uiso  ? O
   O425       1.0     0.470393     0.367148     0.799378    Uiso  ? O
   O426       1.0     0.459270     0.348731     0.763294    Uiso  ? O
   O427       1.0     0.422079     0.586567     0.112645    Uiso  ? O
   O428       1.0     0.421470     0.514319     0.804852    Uiso  ? O
   O429       1.0     0.515012     0.598522     0.823377    Uiso  ? O
   O430       1.0     0.423727     0.412404     0.107620    Uiso  ? O
   O431       1.0     0.418349     0.503678     0.188516    Uiso  ? O
   O432       1.0     0.491376     0.421196     0.812800    Uiso  ? O
   Zn85       1.0     0.392739     0.610825     0.109250    Uiso  ? Zn
   Zn86       1.0     0.347650     0.653166     0.106408    Uiso  ? Zn
   Zn87       1.0     0.389877     0.505176     0.785571    Uiso  ? Zn
   Zn88       1.0     0.347740     0.504878     0.747589    Uiso  ? Zn
   Zn89       1.0     0.502297     0.612323     0.789531    Uiso  ? Zn
   Zn90       1.0     0.502643     0.656756     0.750605    Uiso  ? Zn
   Zn91       1.0     0.392312     0.389965     0.102623    Uiso  ? Zn
   Zn92       1.0     0.347060     0.349554     0.101730    Uiso  ? Zn
   Zn93       1.0     0.392576     0.499920     0.216642    Uiso  ? Zn
   Zn94       1.0     0.348182     0.498420     0.255230    Uiso  ? Zn
   Zn95       1.0     0.495846     0.393292     0.784378    Uiso  ? Zn
   Zn96       1.0     0.497020     0.348739     0.745231    Uiso  ? Zn
   H457       1.0     0.417609     0.522361     0.820871    Uiso  ? H
   H458       1.0     0.438332     0.507390     0.801913    Uiso  ? H
   H459       1.0     0.566112     0.474147     0.202197    Uiso  ? H
   H460       1.0     0.571471     0.498525     0.182738    Uiso  ? H
   H461       1.0     0.493604     0.569075     0.184241    Uiso  ? H
   H462       1.0     0.480990     0.594773     0.172284    Uiso  ? H
   H463       1.0     0.572981     0.579957     0.112630    Uiso  ? H
   H464       1.0     0.583229     0.571814     0.883195    Uiso  ? H
   H465       1.0     0.481274     0.415176     0.826755    Uiso  ? H
   H466       1.0     0.502449     0.435376     0.815289    Uiso  ? H
   H467       1.0     0.589283     0.434324     0.116152    Uiso  ? H
   H468       1.0     0.566513     0.412203     0.108992    Uiso  ? H
   H469       1.0     0.580168     0.477656     0.823988    Uiso  ? H
   H470       1.0     0.569877     0.507609     0.821124    Uiso  ? H
   H471       1.0     0.436011     0.408800     0.120097    Uiso  ? H
   H472       1.0     0.429708     0.423761     0.892653    Uiso  ? H
   H473       1.0     0.493203     0.416826     0.173599    Uiso  ? H
   H474       1.0     0.522641     0.424520     0.186426    Uiso  ? H
   H475       1.0     0.422996     0.520675     0.184471    Uiso  ? H
   H476       1.0     0.427202     0.490406     0.180493    Uiso  ? H
   H477       1.0     0.533180     0.595435     0.826159    Uiso  ? H
   H478       1.0     0.503927     0.595393     0.837711    Uiso  ? H
   H479       1.0     0.437719     0.588480     0.103352    Uiso  ? H
   H480       1.0     0.418094     0.570360     0.119738    Uiso  ? H
   N1         1.0     0.103482     0.687778     0.320768    Uiso  ? N
   C769       1.0     0.887506     0.711125     0.327292    Uiso  ? C
   C770       1.0     0.887485     0.731248     0.306205    Uiso  ? C
   N2         1.0     0.103006     0.721976     0.284650    Uiso  ? N
   C771       1.0     0.129234     0.715338     0.291786    Uiso  ? C
   C772       1.0     0.129897     0.696557     0.314021    Uiso  ? C
   C773       1.0     0.887897     0.678230     0.297865    Uiso  ? C
   C774       1.0     0.888684     0.698882     0.276024    Uiso  ? C
   H481       1.0     0.880577     0.715699     0.345447    Uiso  ? H
   H482       1.0     0.898685     0.745760     0.312744    Uiso  ? H
   H483       1.0     0.139159     0.733614     0.297867    Uiso  ? H
   H484       1.0     0.141467     0.680922     0.308796    Uiso  ? H
   H485       1.0     0.868549     0.672963     0.301563    Uiso  ? H
   H486       1.0     0.103186     0.691045     0.260426    Uiso  ? H
   H487       1.0     0.867145     0.736055     0.303112    Uiso  ? H
   H488       1.0     0.140725     0.706770     0.275295    Uiso  ? H
   H489       1.0     0.136659     0.704058     0.331274    Uiso  ? H
   H490       1.0     0.897606     0.662190     0.291717    Uiso  ? H
   H491       1.0     0.869387     0.704370     0.271164    Uiso  ? H
   N3         1.0     0.103540     0.282529     0.719070    Uiso  ? N
   C775       1.0     0.892966     0.273308     0.694901    Uiso  ? C
   C776       1.0     0.895544     0.291877     0.672295    Uiso  ? C
   N4         1.0     0.105582     0.316466     0.681835    Uiso  ? N
   C777       1.0     0.886803     0.324856     0.702560    Uiso  ? C
   C778       1.0     0.887030     0.304938     0.725780    Uiso  ? C
   C779       1.0     0.130134     0.291408     0.715541    Uiso  ? C
   C780       1.0     0.131688     0.311929     0.693666    Uiso  ? C
   H492       1.0     0.882132     0.255871     0.692059    Uiso  ? H
   H493       1.0     0.877040     0.294248     0.661742    Uiso  ? H
   H494       1.0     0.866989     0.324740     0.696051    Uiso  ? H
   H495       1.0     0.894112     0.313119     0.742942    Uiso  ? H
   H496       1.0     0.143093     0.274956     0.710978    Uiso  ? H
   H497       1.0     0.138004     0.330290     0.701745    Uiso  ? H
   H498       1.0     0.112145     0.284427     0.657793    Uiso  ? H
   H499       1.0     0.889081     0.344953     0.706370    Uiso  ? H
   H500       1.0     0.869008     0.299697     0.729616    Uiso  ? H
   H501       1.0     0.136959     0.297645     0.733087    Uiso  ? H
   H502       1.0     0.144391     0.307139     0.677913    Uiso  ? H
   N5         1.0     0.102608     0.680920     0.685675    Uiso  ? N
   C781       1.0     0.887738     0.703473     0.676658    Uiso  ? C
   C782       1.0     0.887073     0.726153     0.694644    Uiso  ? C
   N6         1.0     0.101797     0.718310     0.718409    Uiso  ? N
   C783       1.0     0.884411     0.696194     0.727816    Uiso  ? C
   C784       1.0     0.887367     0.673461     0.709354    Uiso  ? C
   C785       1.0     0.128471     0.689282     0.691928    Uiso  ? C
   C786       1.0     0.127415     0.710451     0.712430    Uiso  ? C
   H503       1.0     0.880077     0.704719     0.657777    Uiso  ? H
   H504       1.0     0.867366     0.731743     0.697555    Uiso  ? H
   H505       1.0     0.864588     0.702014     0.731695    Uiso  ? H
   H506       1.0     0.898297     0.658335     0.717126    Uiso  ? H
   H507       1.0     0.137396     0.697357     0.675143    Uiso  ? H
   H508       1.0     0.137381     0.705446     0.730699    Uiso  ? H
   H509       1.0     0.896652     0.742266     0.687180    Uiso  ? H
   H510       1.0     0.891301     0.691277     0.746840    Uiso  ? H
   H511       1.0     0.869212     0.664599     0.705666    Uiso  ? H
   H512       1.0     0.140685     0.673111     0.697422    Uiso  ? H
   H513       1.0     0.137861     0.726669     0.706012    Uiso  ? H
   N7         1.0     0.897192     0.318077     0.320392    Uiso  ? N
   C787       1.0     0.124268     0.313133     0.310289    Uiso  ? C
   C788       1.0     0.125803     0.294176     0.288994    Uiso  ? C
   N8         1.0     0.898100     0.283825     0.284043    Uiso  ? N
   C789       1.0     0.890495     0.272388     0.308571    Uiso  ? C
   C790       1.0     0.889010     0.293598     0.329944    Uiso  ? C
   C791       1.0     0.881409     0.325768     0.299611    Uiso  ? C
   C792       1.0     0.881819     0.305581     0.278338    Uiso  ? C
   H514       1.0     0.140108     0.319775     0.320476    Uiso  ? H
   H515       1.0     0.139235     0.277944     0.296126    Uiso  ? H
   H516       1.0     0.106539     0.257688     0.315245    Uiso  ? H
   H517       1.0     0.870936     0.294405     0.338340    Uiso  ? H
   H518       1.0     0.887470     0.344683     0.294438    Uiso  ? H
   H519       1.0     0.860935     0.299429     0.275212    Uiso  ? H
   H520       1.0     0.133190     0.303539     0.271830    Uiso  ? H
   H521       1.0     0.871144     0.263084     0.306958    Uiso  ? H
   H522       1.0     0.102116     0.289300     0.345554    Uiso  ? H
   H523       1.0     0.862066     0.328434     0.306542    Uiso  ? H
   H524       1.0     0.888023     0.314765     0.261280    Uiso  ? H
   N9         1.0     0.682308     0.100561     0.684729    Uiso  ? N
   C793       1.0     0.680083     0.882553     0.705027    Uiso  ? C
   C794       1.0     0.700178     0.882538     0.725021    Uiso  ? C
   N10        1.0     0.720830     0.899978     0.717961    Uiso  ? N
   C795       1.0     0.729694     0.891192     0.692576    Uiso  ? C
   C796       1.0     0.708431     0.893519     0.672524    Uiso  ? C
   C797       1.0     0.684546     0.124461     0.697323    Uiso  ? C
   C798       1.0     0.708594     0.125434     0.714505    Uiso  ? C
   H525       1.0     0.662245     0.872448     0.707914    Uiso  ? H
   H526       1.0     0.705916     0.862627     0.728316    Uiso  ? H
   H527       1.0     0.738462     0.870082     0.694588    Uiso  ? H
   H528       1.0     0.712382     0.107534     0.657402    Uiso  ? H
   H529       1.0     0.666508     0.129459     0.708313    Uiso  ? H
   H530       1.0     0.720779     0.139096     0.706087    Uiso  ? H
   H531       1.0     0.694323     0.889995     0.742681    Uiso  ? H
   H532       1.0     0.744561     0.104747     0.687365    Uiso  ? H
   H533       1.0     0.706627     0.875270     0.662148    Uiso  ? H
   H534       1.0     0.685140     0.140275     0.683104    Uiso  ? H
   H535       1.0     0.703439     0.135188     0.732563    Uiso  ? H
   N11        1.0     0.681671     0.101202     0.318782    Uiso  ? N
   C799       1.0     0.684331     0.878638     0.303801    Uiso  ? C
   C800       1.0     0.705365     0.876057     0.285838    Uiso  ? C
   N12        1.0     0.717709     0.101212     0.284041    Uiso  ? N
   C801       1.0     0.697657     0.120520     0.279502    Uiso  ? C
   C802       1.0     0.677080     0.120904     0.299312    Uiso  ? C
   C803       1.0     0.707427     0.104571     0.330666    Uiso  ? C
   C804       1.0     0.728761     0.104919     0.309630    Uiso  ? C
   H536       1.0     0.673004     0.862052     0.307588    Uiso  ? H
   H537       1.0     0.697505     0.872243     0.266432    Uiso  ? H
   H538       1.0     0.690235     0.118425     0.259756    Uiso  ? H
   H539       1.0     0.676473     0.138471     0.310518    Uiso  ? H
   H540       1.0     0.712123     0.889608     0.345574    Uiso  ? H
   H541       1.0     0.739524     0.122813     0.311121    Uiso  ? H
   H542       1.0     0.718009     0.860163     0.291165    Uiso  ? H
   H543       1.0     0.706054     0.138252     0.279238    Uiso  ? H
   H544       1.0     0.659036     0.119921     0.288960    Uiso  ? H
   H545       1.0     0.708472     0.122004     0.341993    Uiso  ? H
   H546       1.0     0.744862     0.891548     0.314849    Uiso  ? H
   N13        1.0     0.283298     0.100827     0.282832    Uiso  ? N
   C805       1.0     0.300986     0.121097     0.281939    Uiso  ? C
   C806       1.0     0.321080     0.121586     0.301936    Uiso  ? C
   N14        1.0     0.318479     0.899041     0.317670    Uiso  ? N
   C807       1.0     0.291755     0.102003     0.328725    Uiso  ? C
   C808       1.0     0.270918     0.102660     0.306818    Uiso  ? C
   C809       1.0     0.299120     0.877561     0.280399    Uiso  ? C
   C810       1.0     0.319543     0.876752     0.301358    Uiso  ? C
   H547       1.0     0.302449     0.129719     0.263494    Uiso  ? H
   H548       1.0     0.319620     0.139136     0.312848    Uiso  ? H
   H549       1.0     0.288359     0.119654     0.341650    Uiso  ? H
   H550       1.0     0.258590     0.886697     0.309967    Uiso  ? H
   H551       1.0     0.308368     0.877773     0.261661    Uiso  ? H
   H552       1.0     0.317395     0.858635     0.311702    Uiso  ? H
   H553       1.0     0.340410     0.121624     0.292273    Uiso  ? H
   H554       1.0     0.286536     0.885944     0.339958    Uiso  ? H
   H555       1.0     0.259966     0.120053     0.307559    Uiso  ? H
   H556       1.0     0.287391     0.859837     0.282188    Uiso  ? H
   H557       1.0     0.337441     0.875478     0.291590    Uiso  ? H
   N15        1.0     0.315395     0.102510     0.682579    Uiso  ? N
   C811       1.0     0.291299     0.110592     0.673710    Uiso  ? C
   C812       1.0     0.268912     0.110117     0.693661    Uiso  ? C
   N16        1.0     0.279707     0.103204     0.719675    Uiso  ? N
   C813       1.0     0.293530     0.878653     0.716345    Uiso  ? C
   C814       1.0     0.312655     0.877318     0.693756    Uiso  ? C
   C815       1.0     0.321458     0.119829     0.703326    Uiso  ? C
   C816       1.0     0.300903     0.121018     0.724036    Uiso  ? C
   H558       1.0     0.289099     0.123350     0.658282    Uiso  ? H
   H559       1.0     0.254106     0.897554     0.687897    Uiso  ? H
   H560       1.0     0.278154     0.866169     0.711997    Uiso  ? H
   H561       1.0     0.331863     0.869868     0.701165    Uiso  ? H
   H562       1.0     0.322859     0.138746     0.694429    Uiso  ? H
   H563       1.0     0.310411     0.114569     0.742148    Uiso  ? H
   H564       1.0     0.261712     0.129023     0.694048    Uiso  ? H
   H565       1.0     0.302154     0.871622     0.733643    Uiso  ? H
   H566       1.0     0.305780     0.862389     0.679876    Uiso  ? H
   H567       1.0     0.341405     0.116081     0.708461    Uiso  ? H
   H568       1.0     0.292798     0.139219     0.726745    Uiso  ? H
   N17        1.0     0.680457     0.319789     0.898844    Uiso  ? N
   C817       1.0     0.698878     0.319957     0.121011    Uiso  ? C
   C818       1.0     0.720206     0.300876     0.121459    Uiso  ? C
   N18        1.0     0.716671     0.283177     0.899036    Uiso  ? N
   C819       1.0     0.690335     0.272614     0.103325    Uiso  ? C
   C820       1.0     0.668857     0.293983     0.102734    Uiso  ? C
   C821       1.0     0.694928     0.319731     0.875777    Uiso  ? C
   C822       1.0     0.715160     0.297098     0.874564    Uiso  ? C
   H569       1.0     0.698706     0.334763     0.135074    Uiso  ? H
   H570       1.0     0.721062     0.292438     0.139856    Uiso  ? H
   H571       1.0     0.688471     0.260903     0.120696    Uiso  ? H
   H572       1.0     0.656376     0.290988     0.884881    Uiso  ? H
   H573       1.0     0.705355     0.338725     0.874550    Uiso  ? H
   H574       1.0     0.710207     0.283600     0.858336    Uiso  ? H
   H575       1.0     0.739822     0.309501     0.119669    Uiso  ? H
   H576       1.0     0.686236     0.260624     0.885081    Uiso  ? H
   H577       1.0     0.656232     0.292150     0.119934    Uiso  ? H
   H578       1.0     0.682044     0.321072     0.858923    Uiso  ? H
   H579       1.0     0.733753     0.304020     0.869690    Uiso  ? H
   N19        1.0     0.715722     0.716645     0.104027    Uiso  ? N
   C823       1.0     0.726146     0.692957     0.897712    Uiso  ? C
   C824       1.0     0.706586     0.671088     0.899027    Uiso  ? C
   N20        1.0     0.680950     0.681126     0.105210    Uiso  ? N
   C825       1.0     0.681486     0.695282     0.129345    Uiso  ? C
   C826       1.0     0.703001     0.715662     0.128725    Uiso  ? C
   C827       1.0     0.695107     0.722169     0.883476    Uiso  ? C
   C828       1.0     0.675020     0.699873     0.883868    Uiso  ? C
   H580       1.0     0.741086     0.691095     0.884785    Uiso  ? H
   H581       1.0     0.713487     0.658837     0.116759    Uiso  ? H
   H582       1.0     0.683299     0.682423     0.145422    Uiso  ? H
   H583       1.0     0.696598     0.735656     0.134517    Uiso  ? H
   H584       1.0     0.703211     0.724593     0.864756    Uiso  ? H
   H585       1.0     0.656475     0.708890     0.889875    Uiso  ? H
   H586       1.0     0.708381     0.659860     0.881513    Uiso  ? H
   H587       1.0     0.663155     0.704620     0.132379    Uiso  ? H
   H588       1.0     0.717229     0.712000     0.142642    Uiso  ? H
   H589       1.0     0.684799     0.740013     0.888573    Uiso  ? H
   H590       1.0     0.672427     0.689833     0.865531    Uiso  ? H
   N21        1.0     0.282592     0.717245     0.103396    Uiso  ? N
   C829       1.0     0.297410     0.718127     0.125360    Uiso  ? C
   C830       1.0     0.316680     0.698026     0.128294    Uiso  ? C
   N22        1.0     0.318697     0.682705     0.105710    Uiso  ? N
   C831       1.0     0.293427     0.672053     0.102033    Uiso  ? C
   C832       1.0     0.271956     0.692154     0.100840    Uiso  ? C
   C833       1.0     0.301766     0.721515     0.881009    Uiso  ? C
   C834       1.0     0.323520     0.700931     0.882539    Uiso  ? C
   H591       1.0     0.287980     0.727993     0.141908    Uiso  ? H
   H592       1.0     0.311403     0.685667     0.143946    Uiso  ? H
   H593       1.0     0.288908     0.657470     0.116441    Uiso  ? H
   H594       1.0     0.262409     0.693070     0.881582    Uiso  ? H
   H595       1.0     0.307244     0.741195     0.880473    Uiso  ? H
   H596       1.0     0.324719     0.690846     0.863291    Uiso  ? H
   H597       1.0     0.333712     0.706466     0.132333    Uiso  ? H
   H598       1.0     0.293895     0.662492     0.881736    Uiso  ? H
   H599       1.0     0.258445     0.690464     0.115892    Uiso  ? H
   H600       1.0     0.291191     0.719337     0.863268    Uiso  ? H
   H601       1.0     0.341304     0.711464     0.885467    Uiso  ? H
   N23        1.0     0.283015     0.283753     0.102195    Uiso  ? N
   C835       1.0     0.279252     0.303065     0.880987    Uiso  ? C
   C836       1.0     0.297114     0.326098     0.880516    Uiso  ? C
   N24        1.0     0.317066     0.321237     0.101695    Uiso  ? N
   C837       1.0     0.303332     0.319801     0.126826    Uiso  ? C
   C838       1.0     0.282744     0.298612     0.125695    Uiso  ? C
   C839       1.0     0.309266     0.274952     0.897540    Uiso  ? C
   C840       1.0     0.329044     0.297066     0.896461    Uiso  ? C
   H602       1.0     0.260597     0.304512     0.871613    Uiso  ? H
   H603       1.0     0.286113     0.342557     0.886576    Uiso  ? H
   H604       1.0     0.292558     0.337223     0.132192    Uiso  ? H
   H605       1.0     0.284206     0.284659     0.140720    Uiso  ? H
   H606       1.0     0.311380     0.262759     0.881196    Uiso  ? H
   H607       1.0     0.345211     0.291934     0.109424    Uiso  ? H
   H608       1.0     0.303905     0.330854     0.861037    Uiso  ? H
   H609       1.0     0.316682     0.313953     0.141156    Uiso  ? H
   H610       1.0     0.264838     0.308670     0.125797    Uiso  ? H
   H611       1.0     0.312641     0.262693     0.115221    Uiso  ? H
   H612       1.0     0.337039     0.297104     0.877435    Uiso  ? H
   N25        1.0     0.282364     0.319976     0.497988    Uiso  ? N
   C841       1.0     0.299172     0.321031     0.476997    Uiso  ? C
   C842       1.0     0.320682     0.301945     0.476602    Uiso  ? C
   N26        1.0     0.315802     0.282071     0.496939    Uiso  ? N
   C843       1.0     0.316443     0.295571     0.521418    Uiso  ? C
   C844       1.0     0.299054     0.319419     0.520558    Uiso  ? C
   C845       1.0     0.269927     0.294429     0.495995    Uiso  ? C
   C846       1.0     0.289802     0.272762     0.492509    Uiso  ? C
   H613       1.0     0.300465     0.337054     0.465238    Uiso  ? H
   H614       1.0     0.337308     0.312932     0.479350    Uiso  ? H
   H615       1.0     0.336083     0.301154     0.526917    Uiso  ? H
   H616       1.0     0.288204     0.319561     0.537619    Uiso  ? H
   H617       1.0     0.255349     0.294609     0.479918    Uiso  ? H
   H618       1.0     0.286802     0.256440     0.506007    Uiso  ? H
   H619       1.0     0.322910     0.291949     0.458288    Uiso  ? H
   H620       1.0     0.308856     0.281855     0.534783    Uiso  ? H
   H621       1.0     0.311224     0.334746     0.520650    Uiso  ? H
   H622       1.0     0.257550     0.292239     0.512756    Uiso  ? H
   H623       1.0     0.289402     0.263144     0.474536    Uiso  ? H
   N27        1.0     0.320098     0.719116     0.498398    Uiso  ? N
   C847       1.0     0.315176     0.707618     0.522581    Uiso  ? C
   C848       1.0     0.294003     0.688184     0.522892    Uiso  ? C
   N28        1.0     0.283629     0.684992     0.497074    Uiso  ? N
   C849       1.0     0.274955     0.710314     0.487983    Uiso  ? C
   C850       1.0     0.296941     0.730361     0.489220    Uiso  ? C
   C851       1.0     0.326753     0.698577     0.481465    Uiso  ? C
   C852       1.0     0.305488     0.677783     0.480478    Uiso  ? C
   H624       1.0     0.325401     0.711578     0.540387    Uiso  ? H
   H625       1.0     0.279535     0.697140     0.535219    Uiso  ? H
   H626       1.0     0.259093     0.716216     0.499640    Uiso  ? H
   H627       1.0     0.300650     0.738226     0.469493    Uiso  ? H
   H628       1.0     0.345026     0.689048     0.486556    Uiso  ? H
   H629       1.0     0.297902     0.673973     0.461860    Uiso  ? H
   H630       1.0     0.300716     0.669144     0.532170    Uiso  ? H
   H631       1.0     0.266660     0.709842     0.468755    Uiso  ? H
   H632       1.0     0.290948     0.745395     0.503600    Uiso  ? H
   H633       1.0     0.329466     0.706965     0.462789    Uiso  ? H
   H634       1.0     0.315086     0.660106     0.485734    Uiso  ? H
   N29        1.0     0.684522     0.719123     0.501229    Uiso  ? N
   C853       1.0     0.708373     0.727279     0.491209    Uiso  ? C
   C854       1.0     0.729780     0.707152     0.491140    Uiso  ? C
   N30        1.0     0.719723     0.683942     0.502036    Uiso  ? N
   C855       1.0     0.709497     0.689044     0.526734    Uiso  ? C
   C856       1.0     0.688789     0.709980     0.527178    Uiso  ? C
   C857       1.0     0.676850     0.697284     0.485136    Uiso  ? C
   C858       1.0     0.698646     0.677610     0.485309    Uiso  ? C
   H635       1.0     0.709523     0.744351     0.481071    Uiso  ? H
   H636       1.0     0.745969     0.714967     0.501251    Uiso  ? H
   H637       1.0     0.723765     0.693869     0.538447    Uiso  ? H
   H638       1.0     0.671260     0.700716     0.534768    Uiso  ? H
   H639       1.0     0.674175     0.703979     0.465421    Uiso  ? H
   H640       1.0     0.690181     0.659184     0.488105    Uiso  ? H
   H641       1.0     0.737033     0.704535     0.472749    Uiso  ? H
   H642       1.0     0.701716     0.670629     0.536510    Uiso  ? H
   H643       1.0     0.696205     0.725532     0.539509    Uiso  ? H
   H644       1.0     0.659233     0.689842     0.491218    Uiso  ? H
   H645       1.0     0.704022     0.675348     0.466045    Uiso  ? H
   N31        1.0     0.679976     0.283992     0.502433    Uiso  ? N
   C859       1.0     0.676134     0.303219     0.484544    Uiso  ? C
   C860       1.0     0.696218     0.323563     0.482838    Uiso  ? C
   N32        1.0     0.716801     0.317579     0.500491    Uiso  ? N
   C861       1.0     0.705097     0.316080     0.525831    Uiso  ? C
   C862       1.0     0.683968     0.296049     0.526833    Uiso  ? C
   C863       1.0     0.704254     0.272191     0.493910    Uiso  ? C
   C864       1.0     0.726423     0.292422     0.493734    Uiso  ? C
   H646       1.0     0.662040     0.302913     0.470423    Uiso  ? H
   H647       1.0     0.687707     0.341304     0.489424    Uiso  ? H
   H648       1.0     0.697898     0.335583     0.530304    Uiso  ? H
   H649       1.0     0.690076     0.282763     0.541805    Uiso  ? H
   H650       1.0     0.701210     0.265224     0.474759    Uiso  ? H
   H651       1.0     0.742547     0.288175     0.507858    Uiso  ? H
   H652       1.0     0.703672     0.326360     0.463679    Uiso  ? H
   H653       1.0     0.721043     0.312435     0.539655    Uiso  ? H
   H654       1.0     0.665081     0.302986     0.532649    Uiso  ? H
   H655       1.0     0.708465     0.256477     0.505664    Uiso  ? H
   H656       1.0     0.735279     0.293215     0.474661    Uiso  ? H
   N33        1.0     0.318632     0.497491     0.284134    Uiso  ? N
   C865       1.0     0.319111     0.519837     0.298019    Uiso  ? C
   C866       1.0     0.297876     0.522258     0.318407    Uiso  ? C
   N34        1.0     0.281785     0.499817     0.317848    Uiso  ? N
   C867       1.0     0.271599     0.497822     0.292074    Uiso  ? C
   C868       1.0     0.293539     0.496404     0.272805    Uiso  ? C
   C869       1.0     0.321908     0.477341     0.302022    Uiso  ? C
   C870       1.0     0.299658     0.478319     0.322438    Uiso  ? C
   H657       1.0     0.334873     0.532359     0.295152    Uiso  ? H
   H658       1.0     0.286688     0.539345     0.315872    Uiso  ? H
   H659       1.0     0.259461     0.513321     0.287482    Uiso  ? H
   H660       1.0     0.292044     0.478918     0.262370    Uiso  ? H
   H661       1.0     0.340785     0.476513     0.311178    Uiso  ? H
   H662       1.0     0.289460     0.461352     0.319924    Uiso  ? H
   H663       1.0     0.307348     0.524773     0.337151    Uiso  ? H
   H664       1.0     0.259265     0.480771     0.291031    Uiso  ? H
   H665       1.0     0.290671     0.509773     0.257078    Uiso  ? H
   H666       1.0     0.322809     0.458562     0.292163    Uiso  ? H
   H667       1.0     0.307560     0.479849     0.341225    Uiso  ? H
   N35        1.0     0.715684     0.501085     0.317152    Uiso  ? N
   C871       1.0     0.723330     0.511491     0.292899    Uiso  ? C
   C872       1.0     0.703256     0.510932     0.272093    Uiso  ? C
   N36        1.0     0.679794     0.498523     0.282440    Uiso  ? N
   C873       1.0     0.688304     0.472872     0.289783    Uiso  ? C
   C874       1.0     0.707886     0.475076     0.312174    Uiso  ? C
   C875       1.0     0.691749     0.513815     0.326157    Uiso  ? C
   C876       1.0     0.670339     0.512045     0.305629    Uiso  ? C
   H668       1.0     0.742963     0.517445     0.289804    Uiso  ? H
   H669       1.0     0.711441     0.501529     0.254542    Uiso  ? H
   H670       1.0     0.693470     0.463405     0.271520    Uiso  ? H
   H671       1.0     0.699908     0.466831     0.330692    Uiso  ? H
   H672       1.0     0.694375     0.534040     0.331046    Uiso  ? H
   H673       1.0     0.653978     0.502552     0.314073    Uiso  ? H
   H674       1.0     0.699365     0.531134     0.267119    Uiso  ? H
   H675       1.0     0.671395     0.461872     0.295722    Uiso  ? H
   H676       1.0     0.725537     0.463755     0.307511    Uiso  ? H
   H677       1.0     0.686843     0.507458     0.345153    Uiso  ? H
   H678       1.0     0.663003     0.533448     0.301804    Uiso  ? H
   N37        1.0     0.318875     0.502655     0.717943    Uiso  ? N
   C877       1.0     0.320718     0.522730     0.700792    Uiso  ? C
   C878       1.0     0.301423     0.525519     0.681150    Uiso  ? C
   N38        1.0     0.283762     0.503134     0.681729    Uiso  ? N
   C879       1.0     0.299762     0.480194     0.680393    Uiso  ? C
   C880       1.0     0.320562     0.480218     0.701138    Uiso  ? C
   C881       1.0     0.292546     0.503649     0.728397    Uiso  ? C
   C882       1.0     0.271909     0.503350     0.706973    Uiso  ? C
   H679       1.0     0.335962     0.536117     0.702446    Uiso  ? H
   H680       1.0     0.311375     0.526433     0.662830    Uiso  ? H
   H681       1.0     0.309616     0.481484     0.662497    Uiso  ? H
   H682       1.0     0.318235     0.463103     0.713001    Uiso  ? H
   H683       1.0     0.290052     0.521830     0.739076    Uiso  ? H
   H684       1.0     0.259899     0.487321     0.708554    Uiso  ? H
   H685       1.0     0.290824     0.543374     0.683873    Uiso  ? H
   H686       1.0     0.287504     0.463144     0.679634    Uiso  ? H
   H687       1.0     0.339691     0.478766     0.693138    Uiso  ? H
   H688       1.0     0.289552     0.487289     0.740778    Uiso  ? H
   H689       1.0     0.259246     0.520517     0.707983    Uiso  ? H
   N39        1.0     0.719037     0.500246     0.685880    Uiso  ? N
   C883       1.0     0.726086     0.488349     0.709862    Uiso  ? C
   C884       1.0     0.705071     0.490026     0.730099    Uiso  ? C
   N40        1.0     0.683009     0.503076     0.719790    Uiso  ? N
   C885       1.0     0.691835     0.528889     0.711375    Uiso  ? C
   C886       1.0     0.712024     0.527051     0.690394    Uiso  ? C
   C887       1.0     0.695859     0.487139     0.677836    Uiso  ? C
   C888       1.0     0.674529     0.489518     0.697405    Uiso  ? C
   H690       1.0     0.742489     0.476785     0.711840    Uiso  ? H
   H691       1.0     0.712511     0.499279     0.747477    Uiso  ? H
   H692       1.0     0.699198     0.537243     0.728530    Uiso  ? H
   H693       1.0     0.704316     0.535244     0.672436    Uiso  ? H
   H694       1.0     0.700210     0.466503     0.675041    Uiso  ? H
   H695       1.0     0.658770     0.499697     0.689234    Uiso  ? H
   H696       1.0     0.696936     0.471208     0.735101    Uiso  ? H
   H697       1.0     0.676005     0.539060     0.704493    Uiso  ? H
   H698       1.0     0.728474     0.538395     0.697156    Uiso  ? H
   H699       1.0     0.688960     0.494679     0.659803    Uiso  ? H
   H700       1.0     0.666424     0.470884     0.701946    Uiso  ? H
   N41        1.0     0.497455     0.318776     0.717229    Uiso  ? N
   C889       1.0     0.473684     0.308560     0.710002    Uiso  ? C
   C890       1.0     0.473993     0.286227     0.691010    Uiso  ? C
   N42        1.0     0.499541     0.283435     0.681084    Uiso  ? N
   C891       1.0     0.508038     0.309368     0.671299    Uiso  ? C
   C892       1.0     0.508280     0.329359     0.693140    Uiso  ? C
   C893       1.0     0.513081     0.298122     0.725666    Uiso  ? C
   C894       1.0     0.515737     0.277340     0.703469    Uiso  ? C
   H701       1.0     0.455612     0.318443     0.714434    Uiso  ? H
   H702       1.0     0.459900     0.292801     0.675474    Uiso  ? H
   H703       1.0     0.497048     0.315619     0.655592    Uiso  ? H
   H704       1.0     0.525835     0.337629     0.695721    Uiso  ? H
   H705       1.0     0.505491     0.291401     0.742745    Uiso  ? H
   H706       1.0     0.535729     0.275603     0.697660    Uiso  ? H
   H707       1.0     0.466834     0.267427     0.698686    Uiso  ? H
   H708       1.0     0.527719     0.306114     0.663469    Uiso  ? H
   H709       1.0     0.498650     0.346882     0.687432    Uiso  ? H
   H710       1.0     0.531850     0.306775     0.730350    Uiso  ? H
   H711       1.0     0.509795     0.258642     0.709864    Uiso  ? H
   N43        1.0     0.496587     0.319009     0.286257    Uiso  ? N
   C895       1.0     0.495593     0.293714     0.277018    Uiso  ? C
   C896       1.0     0.498058     0.273574     0.296534    Uiso  ? C
   N44        1.0     0.499517     0.284060     0.322284    Uiso  ? N
   C897       1.0     0.522227     0.300696     0.321866    Uiso  ? C
   C898       1.0     0.520764     0.321344     0.300958    Uiso  ? C
   C899       1.0     0.476104     0.321045     0.304046    Uiso  ? C
   C900       1.0     0.478242     0.301724     0.326168    Uiso  ? C
   H712       1.0     0.493148     0.290883     0.257288    Uiso  ? H
   H713       1.0     0.514883     0.261589     0.291893    Uiso  ? H
   H714       1.0     0.539899     0.288659     0.322222    Uiso  ? H
   H715       1.0     0.522381     0.340381     0.311001    Uiso  ? H
   H716       1.0     0.458736     0.317525     0.293724    Uiso  ? H
   H717       1.0     0.480662     0.312386     0.343126    Uiso  ? H
   H718       1.0     0.480150     0.262590     0.294626    Uiso  ? H
   H719       1.0     0.522525     0.308554     0.341204    Uiso  ? H
   H720       1.0     0.536398     0.320971     0.287464    Uiso  ? H
   H721       1.0     0.474743     0.340319     0.311962    Uiso  ? H
   H722       1.0     0.461715     0.290372     0.326833    Uiso  ? H
   N45        1.0     0.499927     0.685011     0.722406    Uiso  ? N
   C901       1.0     0.504788     0.675359     0.696824    Uiso  ? C
   C902       1.0     0.503713     0.693532     0.674755    Uiso  ? C
   N46        1.0     0.497730     0.718942     0.684422    Uiso  ? N
   C903       1.0     0.473506     0.716926     0.699241    Uiso  ? C
   C904       1.0     0.474803     0.697224     0.720876    Uiso  ? C
   C905       1.0     0.518172     0.705204     0.725808    Uiso  ? C
   C906       1.0     0.517794     0.723999     0.703353    Uiso  ? C
   H723       1.0     0.511035     0.656573     0.694359    Uiso  ? H
   H724       1.0     0.489408     0.688439     0.660770    Uiso  ? H
   H725       1.0     0.458740     0.712095     0.686026    Uiso  ? H
   H726       1.0     0.471553     0.706234     0.738973    Uiso  ? H
   H727       1.0     0.536891     0.697457     0.726915    Uiso  ? H
   H728       1.0     0.513354     0.743278     0.711158    Uiso  ? H
   H729       1.0     0.521798     0.693914     0.665082    Uiso  ? H
   H730       1.0     0.468917     0.735677     0.708723    Uiso  ? H
   H731       1.0     0.459954     0.682411     0.719044    Uiso  ? H
   H732       1.0     0.515111     0.713839     0.744839    Uiso  ? H
   H733       1.0     0.536428     0.725472     0.693874    Uiso  ? H
   N47        1.0     0.504041     0.717567     0.319108    Uiso  ? N
   C907       1.0     0.516951     0.694291     0.325475    Uiso  ? C
   C908       1.0     0.516256     0.673030     0.305748    Uiso  ? C
   N48        1.0     0.502181     0.680836     0.284198    Uiso  ? N
   C909       1.0     0.476700     0.688847     0.293470    Uiso  ? C
   C910       1.0     0.478051     0.711110     0.313433    Uiso  ? C
   C911       1.0     0.516726     0.725052     0.296164    Uiso  ? C
   C912       1.0     0.513738     0.704099     0.274747    Uiso  ? C
   H734       1.0     0.524074     0.690031     0.343802    Uiso  ? H
   H735       1.0     0.509874     0.655209     0.314394    Uiso  ? H
   H736       1.0     0.465566     0.673441     0.302673    Uiso  ? H
   H737       1.0     0.467568     0.727429     0.304636    Uiso  ? H
   H738       1.0     0.537456     0.730055     0.300245    Uiso  ? H
   H739       1.0     0.503335     0.710913     0.258538    Uiso  ? H
   H740       1.0     0.534778     0.667456     0.301170    Uiso  ? H
   H741       1.0     0.464568     0.694263     0.276600    Uiso  ? H
   H742       1.0     0.467256     0.706731     0.331080    Uiso  ? H
   H743       1.0     0.506944     0.742193     0.288251    Uiso  ? H
   H744       1.0     0.532103     0.697880     0.266105    Uiso  ? H
