
#======================================================================
# CRYSTAL DATA
#----------------------------------------------------------------------
data_VESTA_phase_1

_chemical_name_common                  ' Atoms. Timestep: 0'
_cell_length_a                         54.589989
_cell_length_b                         54.589989
_cell_length_c                         54.589989
_cell_angle_alpha                      90.000000
_cell_angle_beta                       90.000000
_cell_angle_gamma                      90.000000
_cell_volume                           1.000000
_space_group_name_H-M_alt              'P 1'
_space_group_IT_number                 1

loop_
_space_group_symop_operation_xyz
   'x, y, z'

loop_
   _atom_site_label
   _atom_site_occupancy
   _atom_site_fract_x
   _atom_site_fract_y
   _atom_site_fract_z
   _atom_site_adp_type
   _atom_site_U_iso_or_equiv
   _atom_site_type_symbol
   C1         1.0     0.793592     0.250064     0.144345    Uiso  ? C
   C2         1.0     0.804148     0.256773     0.144345    Uiso  ? C
   C3         1.0     0.790357     0.271293     0.144345    Uiso  ? C
   H1         1.0     0.823175     0.770685     0.276754    Uiso  ? H
   C4         1.0     0.798777     0.278173     0.144345    Uiso  ? C
   H2         1.0     0.783748     0.784536     0.287131    Uiso  ? H
   C5         1.0     0.822459     0.270982     0.144345    Uiso  ? C
   H3         1.0     0.769066     0.825759     0.276194    Uiso  ? H
   C6         1.0     0.838945     0.259330     0.144345    Uiso  ? C
   C7         1.0     0.829280     0.251425     0.144345    Uiso  ? C
   H4         1.0     0.838502     0.840388     0.240925    Uiso  ? H
   C8         1.0     0.863076     0.250323     0.144345    Uiso  ? C
   C9         1.0     0.750466     0.209297     0.144345    Uiso  ? C
   C10        1.0     0.739791     0.200258     0.144345    Uiso  ? C
   C11        1.0     0.722010     0.213592     0.144345    Uiso  ? C
   H5         1.0     0.829533     0.715882     0.232468    Uiso  ? H
   C12        1.0     0.712691     0.204452     0.144345    Uiso  ? C
   H6         1.0     0.789674     0.698047     0.215226    Uiso  ? H
   C13        1.0     0.720412     0.181422     0.144345    Uiso  ? C
   H7         1.0     0.772427     0.711449     0.177679    Uiso  ? H
   C14        1.0     0.738150     0.167031     0.144345    Uiso  ? C
   C15        1.0     0.746179     0.175365     0.144345    Uiso  ? C
   H8         1.0     0.834900     0.759551     0.166389    Uiso  ? H
   C16        1.0     0.746610     0.142669     0.144345    Uiso  ? C
   C-17       1.0     0.750550     0.208569     0.144345    Uiso  ? C-
   C17        1.0     0.739018     0.195495     0.144345    Uiso  ? C
   C18        1.0     0.714715     0.201013     0.144345    Uiso  ? C
   H9         1.0     0.159546     0.704677     0.218001    Uiso  ? H
   C19        1.0     0.702876     0.186813     0.144345    Uiso  ? C
   H10        1.0     0.188843     0.682255     0.191621    Uiso  ? H
   C20        1.0     0.714613     0.167034     0.144345    Uiso  ? C
   H11        1.0     0.208305     0.703327     0.154007    Uiso  ? H
   C21        1.0     0.738544     0.161844     0.144345    Uiso  ? C
   C22        1.0     0.749760     0.174198     0.144345    Uiso  ? C
   H12        1.0     0.168600     0.767606     0.169790    Uiso  ? H
   C23        1.0     0.750929     0.140402     0.144345    Uiso  ? C
   C-24       1.0     0.792937     0.246539     0.144345    Uiso  ? C-
   C24        1.0     0.807582     0.257329     0.144345    Uiso  ? C
   C25        1.0     0.799834     0.280814     0.144345    Uiso  ? C
   H13        1.0     0.167533     0.780544     0.289663    Uiso  ? H
   C26        1.0     0.813567     0.293068     0.144345    Uiso  ? C
   H14        1.0     0.194238     0.807423     0.312740    Uiso  ? H
   C27        1.0     0.835056     0.283832     0.144345    Uiso  ? C
   H15        1.0     0.209500     0.845572     0.295966    Uiso  ? H
   C28        1.0     0.841515     0.259878     0.144345    Uiso  ? C
   C29        1.0     0.827974     0.246537     0.144345    Uiso  ? C
   H16        1.0     0.172322     0.831639     0.229525    Uiso  ? H
   C30        1.0     0.862521     0.248529     0.144345    Uiso  ? C
   C31        1.0     0.141237     0.206372     0.144345    Uiso  ? C
   C32        1.0     0.161335     0.191165     0.144345    Uiso  ? C
   C33        1.0     0.170492     0.199038     0.144345    Uiso  ? C
   H17        1.0     0.704008     0.161343     0.215536    Uiso  ? H
   C34        1.0     0.188594     0.184657     0.144345    Uiso  ? C
   H18        1.0     0.683525     0.193623     0.193104    Uiso  ? H
   C35        1.0     0.199756     0.165318     0.144345    Uiso  ? C
   H19        1.0     0.703642     0.213712     0.156657    Uiso  ? H
   C36        1.0     0.193318     0.158340     0.144345    Uiso  ? C
   C37        1.0     0.173609     0.171079     0.144345    Uiso  ? C
   H20        1.0     0.769638     0.166710     0.168934    Uiso  ? H
   C38        1.0     0.205671     0.136997     0.144345    Uiso  ? C
   C39        1.0     0.866577     0.205696     0.144345    Uiso  ? C
   C40        1.0     0.842105     0.194001     0.144345    Uiso  ? C
   C41        1.0     0.831119     0.205330     0.144345    Uiso  ? C
   H21        1.0     0.714219     0.838522     0.221955    Uiso  ? H
   C42        1.0     0.809158     0.196130     0.144345    Uiso  ? C
   H22        1.0     0.695956     0.799743     0.205721    Uiso  ? H
   C43        1.0     0.798062     0.175116     0.144345    Uiso  ? C
   H23        1.0     0.713384     0.779732     0.170236    Uiso  ? H
   C44        1.0     0.807826     0.162919     0.144345    Uiso  ? C
   C45        1.0     0.830420     0.172334     0.144345    Uiso  ? C
   H24        1.0     0.770033     0.833774     0.166420    Uiso  ? H
   C46        1.0     0.793477     0.141340     0.144345    Uiso  ? C
   C47        1.0     0.144186     0.246679     0.144345    Uiso  ? C
   C48        1.0     0.165977     0.258611     0.144345    Uiso  ? C
   C49        1.0     0.171772     0.283075     0.144345    Uiso  ? C
   H25        1.0     0.789421     0.159671     0.294570    Uiso  ? H
   C50        1.0     0.189743     0.295913     0.144345    Uiso  ? C
   H26        1.0     0.809451     0.193368     0.316775    Uiso  ? H
   C51        1.0     0.205746     0.282835     0.144345    Uiso  ? C
   H27        1.0     0.838137     0.219987     0.295094    Uiso  ? H
   C52        1.0     0.199409     0.259467     0.144345    Uiso  ? C
   C53        1.0     0.180604     0.246905     0.144345    Uiso  ? C
   H28        1.0     0.831501     0.175346     0.229590    Uiso  ? H
   C54        1.0     0.211653     0.249602     0.144345    Uiso  ? C
   C55        1.0     0.790411     0.863050     0.144345    Uiso  ? C
   C56        1.0     0.804695     0.841491     0.144345    Uiso  ? C
   C57        1.0     0.797855     0.832641     0.144345    Uiso  ? C
   H29        1.0     0.711306     0.781174     0.841826    Uiso  ? H
   C58        1.0     0.810711     0.812971     0.144345    Uiso  ? C
   H30        1.0     0.691805     0.802826     0.805459    Uiso  ? H
   C59        1.0     0.832096     0.803896     0.144345    Uiso  ? C
   H31        1.0     0.706903     0.843283     0.792918    Uiso  ? H
   C60        1.0     0.838352     0.809980     0.144345    Uiso  ? C
   C61        1.0     0.825278     0.828408     0.144345    Uiso  ? C
   H32        1.0     0.771620     0.828883     0.833885    Uiso  ? H
   C62        1.0     0.860482     0.796706     0.144345    Uiso  ? C
   C63        1.0     0.749154     0.860509     0.144345    Uiso  ? C
   C64        1.0     0.739722     0.836525     0.144345    Uiso  ? C
   C65        1.0     0.717866     0.827835     0.144345    Uiso  ? C
   H33        1.0     0.780077     0.707767     0.836661    Uiso  ? H
   C66        1.0     0.707478     0.806596     0.144345    Uiso  ? C
   H34        1.0     0.796417     0.690515     0.801458    Uiso  ? H
   C67        1.0     0.718408     0.795065     0.144345    Uiso  ? C
   H35        1.0     0.831971     0.709496     0.779767    Uiso  ? H
   C68        1.0     0.739401     0.805690     0.144345    Uiso  ? C
   C69        1.0     0.750255     0.826684     0.144345    Uiso  ? C
   H36        1.0     0.837256     0.763213     0.837256    Uiso  ? H
   C70        1.0     0.749150     0.793030     0.144345    Uiso  ? C
   C71        1.0     0.250010     0.204261     0.144345    Uiso  ? C
   C72        1.0     0.260166     0.190835     0.144345    Uiso  ? C
   C73        1.0     0.282865     0.197594     0.144345    Uiso  ? C
   H37        1.0     0.841006     0.293852     0.210693    Uiso  ? H
   C74        1.0     0.293484     0.184876     0.144345    Uiso  ? C
   H38        1.0     0.806111     0.311905     0.189240    Uiso  ? H
   C75        1.0     0.280653     0.165639     0.144345    Uiso  ? C
   H39        1.0     0.785760     0.289014     0.156070    Uiso  ? H
   C76        1.0     0.256684     0.159436     0.144345    Uiso  ? C
   C77        1.0     0.246011     0.172769     0.144345    Uiso  ? C
   H40        1.0     0.834239     0.228236     0.167712    Uiso  ? H
   C78        1.0     0.244869     0.138589     0.144345    Uiso  ? C
   C-79       1.0     0.209821     0.252433     0.144345    Uiso  ? C-
   C79        1.0     0.199441     0.258957     0.144345    Uiso  ? C
   C80        1.0     0.211950     0.276594     0.144345    Uiso  ? C
   H41        1.0     0.176557     0.228809     0.285915    Uiso  ? H
   C81        1.0     0.201588     0.284523     0.144345    Uiso  ? C
   H42        1.0     0.215453     0.211445     0.298496    Uiso  ? H
   C82        1.0     0.180537     0.273411     0.144345    Uiso  ? C
   H43        1.0     0.228587     0.172031     0.280367    Uiso  ? H
   C83        1.0     0.166620     0.257622     0.144345    Uiso  ? C
   C84        1.0     0.176250     0.249990     0.144345    Uiso  ? C
   H44        1.0     0.162576     0.164334     0.237427    Uiso  ? H
   C85        1.0     0.141714     0.250246     0.144345    Uiso  ? C
   C86        1.0     0.861143     0.207792     0.144345    Uiso  ? C
   C87        1.0     0.839115     0.193757     0.144345    Uiso  ? C
   C88        1.0     0.829280     0.200832     0.144345    Uiso  ? C
   H45        1.0     0.290569     0.836063     0.218397    Uiso  ? H
   C89        1.0     0.809366     0.190504     0.144345    Uiso  ? C
   H46        1.0     0.308321     0.802759     0.199388    Uiso  ? H
   C90        1.0     0.797516     0.170710     0.144345    Uiso  ? C
   H47        1.0     0.286585     0.781134     0.164736    Uiso  ? H
   C91        1.0     0.807932     0.160941     0.144345    Uiso  ? C
   C92        1.0     0.828145     0.172764     0.144345    Uiso  ? C
   H48        1.0     0.228415     0.833283     0.167001    Uiso  ? H
   C93        1.0     0.794417     0.138459     0.144345    Uiso  ? C
   O1         1.0     0.875408     0.805609     0.239715    Uiso  ? O
   O2         1.0     0.863939     0.769710     0.256022    Uiso  ? O
   O3         1.0     0.874497     0.761720     0.197641    Uiso  ? O
   O4         1.0     0.865873     0.745768     0.233468    Uiso  ? O
   O5         1.0     0.135593     0.772370     0.204886    Uiso  ? O
   O6         1.0     0.129587     0.737498     0.226196    Uiso  ? O
   O7         1.0     0.136033     0.796157     0.224840    Uiso  ? O
   O8         1.0     0.129874     0.775673     0.260655    Uiso  ? O
   O9         1.0     0.771913     0.134508     0.203454    Uiso  ? O
   O10        1.0     0.738529     0.128234     0.224411    Uiso  ? O
   O11        1.0     0.765153     0.880379     0.193930    Uiso  ? O
   O12        1.0     0.747430     0.869665     0.229629    Uiso  ? O
   O13        1.0     0.807232     0.877895     0.240642    Uiso  ? O
   O14        1.0     0.770689     0.867172     0.253669    Uiso  ? O
   O15        1.0     0.797621     0.136377     0.225369    Uiso  ? O
   O16        1.0     0.777965     0.131190     0.260888    Uiso  ? O
   O17        1.0     0.775782     0.793200     0.869569    Uiso  ? O
   O18        1.0     0.741063     0.771984     0.875314    Uiso  ? O
   O19        1.0     0.798326     0.770397     0.868408    Uiso  ? O
   O20        1.0     0.777340     0.736574     0.875543    Uiso  ? O
   O21        1.0     0.804635     0.753429     0.126423    Uiso  ? O
   O22        1.0     0.768058     0.745701     0.140779    Uiso  ? O
   O23        1.0     0.766846     0.802641     0.126793    Uiso  ? O
   O24        1.0     0.744783     0.769569     0.137080    Uiso  ? O
   O25        1.0     0.866782     0.225651     0.205719    Uiso  ? O
   O26        1.0     0.874224     0.262187     0.221261    Uiso  ? O
   O27        1.0     0.867390     0.207945     0.228851    Uiso  ? O
   O28        1.0     0.872689     0.227157     0.264158    Uiso  ? O
   O29        1.0     0.127642     0.195809     0.239496    Uiso  ? O
   O30        1.0     0.135340     0.231545     0.257109    Uiso  ? O
   O31        1.0     0.126182     0.241415     0.197098    Uiso  ? O
   O32        1.0     0.137571     0.254848     0.233280    Uiso  ? O
   O33        1.0     0.193304     0.126059     0.239464    Uiso  ? O
   O34        1.0     0.230547     0.136007     0.253431    Uiso  ? O
   O35        1.0     0.205498     0.867366     0.226962    Uiso  ? O
   O36        1.0     0.222980     0.873796     0.263701    Uiso  ? O
   O37        1.0     0.227413     0.868756     0.204251    Uiso  ? O
   O38        1.0     0.260045     0.869326     0.227776    Uiso  ? O
   O39        1.0     0.239957     0.123916     0.196041    Uiso  ? O
   O40        1.0     0.252304     0.134703     0.232304    Uiso  ? O
   O41        1.0     0.802944     0.237206     0.875660    Uiso  ? O
   O42        1.0     0.767150     0.253069     0.863519    Uiso  ? O
   O43        1.0     0.760268     0.192758     0.872590    Uiso  ? O
   O44        1.0     0.743646     0.229173     0.865382    Uiso  ? O
   O45        1.0     0.771162     0.200481     0.132283    Uiso  ? O
   O46        1.0     0.737423     0.223149     0.127899    Uiso  ? O
   O47        1.0     0.795712     0.222275     0.133689    Uiso  ? O
   O48        1.0     0.773785     0.255326     0.129385    Uiso  ? O
   O49        1.0     0.884519     0.805679     0.181669    Uiso  ? O
   O50        1.0     0.824983     0.887677     0.206005    Uiso  ? O
   O51        1.0     0.823521     0.801676     0.112019    Uiso  ? O
   O52        1.0     0.117433     0.180009     0.207716    Uiso  ? O
   O53        1.0     0.177904     0.113793     0.207760    Uiso  ? O
   O54        1.0     0.806610     0.179803     0.885543    Uiso  ? O
   Zn1        1.0     0.897326     0.787765     0.213234    Uiso  ? Zn
   Zn2        1.0     0.898908     0.746327     0.254420    Uiso  ? Zn
   Zn3        1.0     0.789017     0.100519     0.214711    Uiso  ? Zn
   Zn4        1.0     0.749231     0.101880     0.254654    Uiso  ? Zn
   Zn5        1.0     0.792323     0.783764     0.105095    Uiso  ? Zn
   Zn6        1.0     0.747238     0.744693     0.104815    Uiso  ? Zn
   Zn7        1.0     0.105147     0.215345     0.216801    Uiso  ? Zn
   Zn8        1.0     0.101412     0.255230     0.254256    Uiso  ? Zn
   Zn9        1.0     0.214525     0.104072     0.216003    Uiso  ? Zn
   Zn10       1.0     0.252401     0.100000     0.255439    Uiso  ? Zn
   Zn11       1.0     0.785553     0.210320     0.896957    Uiso  ? Zn
   Zn12       1.0     0.744611     0.251232     0.100506    Uiso  ? Zn
   C-94       1.0     0.209422     0.752502     0.144345    Uiso  ? C-
   C94        1.0     0.196523     0.741815     0.144345    Uiso  ? C
   C95        1.0     0.206148     0.720114     0.144345    Uiso  ? C
   H49        1.0     0.164697     0.220382     0.712570    Uiso  ? H
   C96        1.0     0.194877     0.707540     0.144345    Uiso  ? C
   H50        1.0     0.198262     0.201377     0.691940    Uiso  ? H
   C97        1.0     0.174181     0.717719     0.144345    Uiso  ? C
   H51        1.0     0.218479     0.163766     0.708077    Uiso  ? H
   C98        1.0     0.163513     0.739861     0.144345    Uiso  ? C
   C99        1.0     0.174987     0.752205     0.144345    Uiso  ? C
   H52        1.0     0.167667     0.166753     0.770092    Uiso  ? H
   C100       1.0     0.141725     0.749654     0.144345    Uiso  ? C
   C-101      1.0     0.249046     0.793861     0.144345    Uiso  ? C-
   C101       1.0     0.260505     0.808776     0.144345    Uiso  ? C
   C102       1.0     0.286885     0.806399     0.144345    Uiso  ? C
   H53        1.0     0.155372     0.296081     0.793515    Uiso  ? H
   C103       1.0     0.298301     0.822599     0.144345    Uiso  ? C
   H54        1.0     0.182698     0.317665     0.821806    Uiso  ? H
   C104       1.0     0.284542     0.838718     0.144345    Uiso  ? C
   H55        1.0     0.207572     0.294375     0.851037    Uiso  ? H
   C105       1.0     0.259866     0.842751     0.144345    Uiso  ? C
   C106       1.0     0.247254     0.826366     0.144345    Uiso  ? C
   H56        1.0     0.173767     0.226249     0.829199    Uiso  ? H
   C107       1.0     0.248256     0.863306     0.144345    Uiso  ? C
   C108       1.0     0.249890     0.794673     0.144345    Uiso  ? C
   C109       1.0     0.259413     0.805561     0.144345    Uiso  ? C
   C110       1.0     0.276135     0.791055     0.144345    Uiso  ? C
   H57        1.0     0.828595     0.282159     0.775651    Uiso  ? H
   C111       1.0     0.282817     0.799009     0.144345    Uiso  ? C
   H58        1.0     0.789297     0.293689     0.788518    Uiso  ? H
   C112       1.0     0.274888     0.821028     0.144345    Uiso  ? C
   H59        1.0     0.770810     0.279614     0.827064    Uiso  ? H
   C113       1.0     0.259112     0.835719     0.144345    Uiso  ? C
   C114       1.0     0.252044     0.827796     0.144345    Uiso  ? C
   H60        1.0     0.836941     0.237000     0.838300    Uiso  ? H
   C115       1.0     0.249611     0.858872     0.144345    Uiso  ? C
   C116       1.0     0.207362     0.751297     0.144345    Uiso  ? C
   C117       1.0     0.196609     0.743621     0.144345    Uiso  ? C
   C118       1.0     0.210354     0.728159     0.144345    Uiso  ? C
   H61        1.0     0.828936     0.226648     0.722249    Uiso  ? H
   C119       1.0     0.201884     0.720548     0.144345    Uiso  ? C
   H62        1.0     0.788991     0.213035     0.710086    Uiso  ? H
   C120       1.0     0.179817     0.728566     0.144345    Uiso  ? C
   H63        1.0     0.771436     0.172885     0.723970    Uiso  ? H
   C121       1.0     0.163296     0.741887     0.144345    Uiso  ? C
   C122       1.0     0.172464     0.750745     0.144345    Uiso  ? C
   H64        1.0     0.838091     0.161158     0.764849    Uiso  ? H
   C123       1.0     0.138144     0.749430     0.144345    Uiso  ? C
   C124       1.0     0.862697     0.790962     0.144345    Uiso  ? C
   C125       1.0     0.837692     0.802227     0.144345    Uiso  ? C
   C126       1.0     0.819898     0.786160     0.144345    Uiso  ? C
   H65        1.0     0.274015     0.823043     0.768419    Uiso  ? H
   C127       1.0     0.795743     0.793788     0.144345    Uiso  ? C
   H66        1.0     0.279377     0.781605     0.783372    Uiso  ? H
   C128       1.0     0.788460     0.817047     0.144345    Uiso  ? C
   H67        1.0     0.264359     0.767606     0.822588    Uiso  ? H
   C129       1.0     0.804472     0.833687     0.144345    Uiso  ? C
   C130       1.0     0.829839     0.826263     0.144345    Uiso  ? C
   H68        1.0     0.241510     0.839817     0.840747    Uiso  ? H
   C131       1.0     0.793941     0.859110     0.144345    Uiso  ? C
   C132       1.0     0.141870     0.791643     0.144345    Uiso  ? C
   C133       1.0     0.162473     0.805655     0.144345    Uiso  ? C
   C134       1.0     0.170646     0.796008     0.144345    Uiso  ? C
   H69        1.0     0.288692     0.160233     0.782660    Uiso  ? H
   C135       1.0     0.190109     0.809007     0.144345    Uiso  ? C
   H70        1.0     0.310588     0.195594     0.804184    Uiso  ? H
   C136       1.0     0.200965     0.830335     0.144345    Uiso  ? C
   H71        1.0     0.293152     0.214023     0.840899    Uiso  ? H
   C137       1.0     0.194384     0.838463     0.144345    Uiso  ? C
   C138       1.0     0.174104     0.826739     0.144345    Uiso  ? C
   H72        1.0     0.228532     0.166910     0.831390    Uiso  ? H
   C139       1.0     0.209213     0.860245     0.144345    Uiso  ? C
   C140       1.0     0.859738     0.749296     0.144345    Uiso  ? C
   C141       1.0     0.835175     0.741790     0.144345    Uiso  ? C
   C142       1.0     0.822700     0.721643     0.144345    Uiso  ? C
   H73        1.0     0.225574     0.829269     0.715636    Uiso  ? H
   C143       1.0     0.799592     0.713882     0.144345    Uiso  ? C
   H74        1.0     0.207786     0.789899     0.700397    Uiso  ? H
   C144       1.0     0.788696     0.724726     0.144345    Uiso  ? C
   H75        1.0     0.171060     0.770813     0.719390    Uiso  ? H
   C145       1.0     0.801235     0.742618     0.144345    Uiso  ? C
   C146       1.0     0.824802     0.751916     0.144345    Uiso  ? C
   H76        1.0     0.166525     0.834688     0.767212    Uiso  ? H
   C-147      1.0     0.789832     0.751797     0.144345    Uiso  ? C-
   C147       1.0     0.207451     0.139613     0.144345    Uiso  ? C
   C148       1.0     0.196677     0.164796     0.144345    Uiso  ? C
   C149       1.0     0.210918     0.180890     0.144345    Uiso  ? C
   H77        1.0     0.278822     0.228140     0.174830    Uiso  ? H
   C150       1.0     0.203758     0.204085     0.144345    Uiso  ? C
   H78        1.0     0.291265     0.215633     0.216177    Uiso  ? H
   C151       1.0     0.181056     0.212894     0.144345    Uiso  ? C
   H79        1.0     0.276740     0.174267     0.232093    Uiso  ? H
   C152       1.0     0.164585     0.198013     0.144345    Uiso  ? C
   C153       1.0     0.172508     0.173920     0.144345    Uiso  ? C
   H80        1.0     0.241327     0.161067     0.164204    Uiso  ? H
   C154       1.0     0.139589     0.207997     0.144345    Uiso  ? C
   C155       1.0     0.249565     0.138587     0.144345    Uiso  ? C
   C156       1.0     0.260292     0.162535     0.144345    Uiso  ? C
   C157       1.0     0.275975     0.177462     0.144345    Uiso  ? C
   H81        1.0     0.229785     0.280753     0.172702    Uiso  ? H
   C158       1.0     0.283821     0.201062     0.144345    Uiso  ? C
   H82        1.0     0.217761     0.295093     0.212757    Uiso  ? H
   C159       1.0     0.274558     0.210891     0.144345    Uiso  ? C
   H83        1.0     0.179066     0.279696     0.230997    Uiso  ? H
   C160       1.0     0.259949     0.196967     0.144345    Uiso  ? C
   C161       1.0     0.251945     0.172138     0.144345    Uiso  ? C
   H84        1.0     0.163772     0.237631     0.165072    Uiso  ? H
   C-162      1.0     0.251860     0.209182     0.144345    Uiso  ? C-
   C-163      1.0     0.747212     0.791960     0.144345    Uiso  ? C-
   C162       1.0     0.737815     0.803640     0.144345    Uiso  ? C
   C163       1.0     0.723411     0.788480     0.144345    Uiso  ? C
   H85        1.0     0.176031     0.717338     0.771828    Uiso  ? H
   C164       1.0     0.718077     0.798142     0.144345    Uiso  ? C
   H86        1.0     0.217420     0.708223     0.786474    Uiso  ? H
   C165       1.0     0.727203     0.820621     0.144345    Uiso  ? C
   H87        1.0     0.231787     0.724732     0.825261    Uiso  ? H
   C166       1.0     0.740422     0.836318     0.144345    Uiso  ? C
   C167       1.0     0.744005     0.828194     0.144345    Uiso  ? C
   H88        1.0     0.160447     0.755162     0.840599    Uiso  ? H
   C168       1.0     0.749969     0.860038     0.144345    Uiso  ? C
   C169       1.0     0.790854     0.753299     0.144345    Uiso  ? C
   C170       1.0     0.803559     0.742951     0.144345    Uiso  ? C
   C171       1.0     0.795653     0.720057     0.144345    Uiso  ? C
   H89        1.0     0.838370     0.779024     0.712275    Uiso  ? H
   C172       1.0     0.807285     0.708188     0.144345    Uiso  ? C
   H90        1.0     0.804371     0.800079     0.691229    Uiso  ? H
   C173       1.0     0.827756     0.718890     0.144345    Uiso  ? C
   H91        1.0     0.782570     0.835083     0.710108    Uiso  ? H
   C174       1.0     0.835292     0.743008     0.144345    Uiso  ? C
   C175       1.0     0.823688     0.754365     0.144345    Uiso  ? C
   H92        1.0     0.831449     0.829434     0.772310    Uiso  ? H
   C176       1.0     0.858991     0.752266     0.144345    Uiso  ? C
   C177       1.0     0.139310     0.793904     0.144345    Uiso  ? C
   C178       1.0     0.163083     0.803502     0.144345    Uiso  ? C
   C179       1.0     0.174720     0.792837     0.144345    Uiso  ? C
   H93        1.0     0.709482     0.164642     0.777783    Uiso  ? H
   C180       1.0     0.197098     0.801797     0.144345    Uiso  ? C
   H94        1.0     0.693081     0.202772     0.795975    Uiso  ? H
   C181       1.0     0.209281     0.821751     0.144345    Uiso  ? C
   H95        1.0     0.714497     0.225962     0.830231    Uiso  ? H
   C182       1.0     0.197408     0.833845     0.144345    Uiso  ? C
   C183       1.0     0.175264     0.824014     0.144345    Uiso  ? C
   H96        1.0     0.767265     0.166337     0.833986    Uiso  ? H
   C184       1.0     0.207571     0.857426     0.144345    Uiso  ? C
   O55        1.0     0.135039     0.204043     0.775983    Uiso  ? O
   O56        1.0     0.129077     0.223967     0.740672    Uiso  ? O
   O57        1.0     0.135693     0.225492     0.798001    Uiso  ? O
   O58        1.0     0.128780     0.260769     0.779174    Uiso  ? O
   O59        1.0     0.874571     0.235481     0.808593    Uiso  ? O
   O60        1.0     0.865318     0.252335     0.773063    Uiso  ? O
   O61        1.0     0.875417     0.192966     0.765294    Uiso  ? O
   O62        1.0     0.865994     0.228810     0.748525    Uiso  ? O
   O63        1.0     0.239886     0.878181     0.804631    Uiso  ? O
   O64        1.0     0.254883     0.865834     0.768835    Uiso  ? O
   O65        1.0     0.224760     0.134185     0.796534    Uiso  ? O
   O66        1.0     0.258747     0.128171     0.776005    Uiso  ? O
   O67        1.0     0.205970     0.133505     0.772955    Uiso  ? O
   O68        1.0     0.224582     0.128201     0.737087    Uiso  ? O
   O69        1.0     0.193823     0.873237     0.763015    Uiso  ? O
   O70        1.0     0.229069     0.866399     0.745012    Uiso  ? O
   O71        1.0     0.237721     0.193021     0.126691    Uiso  ? O
   O72        1.0     0.252893     0.228989     0.136171    Uiso  ? O
   O73        1.0     0.193419     0.236491     0.125702    Uiso  ? O
   O74        1.0     0.230960     0.250762     0.135597    Uiso  ? O
   O75        1.0     0.202502     0.224693     0.868654    Uiso  ? O
   O76        1.0     0.222360     0.259705     0.874607    Uiso  ? O
   O77        1.0     0.226848     0.203302     0.867943    Uiso  ? O
   O78        1.0     0.261414     0.224137     0.872572    Uiso  ? O
   O79        1.0     0.124607     0.756247     0.806366    Uiso  ? O
   O80        1.0     0.138374     0.743900     0.769927    Uiso  ? O
   O81        1.0     0.127646     0.801172     0.766723    Uiso  ? O
   O82        1.0     0.136691     0.766256     0.748144    Uiso  ? O
   O83        1.0     0.865602     0.792431     0.776726    Uiso  ? O
   O84        1.0     0.873508     0.774834     0.741641    Uiso  ? O
   O85        1.0     0.865833     0.771048     0.798172    Uiso  ? O
   O86        1.0     0.872327     0.735472     0.778318    Uiso  ? O
   O87        1.0     0.794745     0.865336     0.775389    Uiso  ? O
   O88        1.0     0.772310     0.868122     0.742083    Uiso  ? O
   O89        1.0     0.806285     0.123343     0.763244    Uiso  ? O
   O90        1.0     0.770200     0.131090     0.747236    Uiso  ? O
   O91        1.0     0.762453     0.125662     0.807494    Uiso  ? O
   O92        1.0     0.744221     0.132214     0.772766    Uiso  ? O
   O93        1.0     0.775256     0.865666     0.800801    Uiso  ? O
   O94        1.0     0.740348     0.870773     0.780680    Uiso  ? O
   O95        1.0     0.202465     0.772325     0.135972    Uiso  ? O
   O96        1.0     0.224034     0.738421     0.129223    Uiso  ? O
   O97        1.0     0.223651     0.795140     0.135807    Uiso  ? O
   O98        1.0     0.260584     0.778212     0.127465    Uiso  ? O
   O99        1.0     0.233760     0.805974     0.874689    Uiso  ? O
   O100       1.0     0.250767     0.769784     0.866164    Uiso  ? O
   O101       1.0     0.192562     0.760320     0.876891    Uiso  ? O
   O102       1.0     0.228943     0.745041     0.866424    Uiso  ? O
   O103       1.0     0.889103     0.181526     0.817289    Uiso  ? O
   O104       1.0     0.181741     0.883539     0.789830    Uiso  ? O
   O105       1.0     0.186338     0.180421     0.113017    Uiso  ? O
   O106       1.0     0.117589     0.817587     0.799460    Uiso  ? O
   O107       1.0     0.818674     0.119140     0.797217    Uiso  ? O
   O108       1.0     0.185744     0.812532     0.888600    Uiso  ? O
   Zn13       1.0     0.896914     0.210618     0.791575    Uiso  ? Zn
   Zn14       1.0     0.102263     0.252826     0.750218    Uiso  ? Zn
   Zn15       1.0     0.215293     0.898670     0.782259    Uiso  ? Zn
   Zn16       1.0     0.252496     0.100187     0.746536    Uiso  ? Zn
   Zn17       1.0     0.210568     0.208744     0.104620    Uiso  ? Zn
   Zn18       1.0     0.253630     0.252318     0.101707    Uiso  ? Zn
   Zn19       1.0     0.104048     0.782975     0.790912    Uiso  ? Zn
   Zn20       1.0     0.104039     0.745437     0.747697    Uiso  ? Zn
   Zn21       1.0     0.784501     0.101757     0.786651    Uiso  ? Zn
   Zn22       1.0     0.745188     0.898710     0.748956    Uiso  ? Zn
   Zn23       1.0     0.209611     0.787232     0.899494    Uiso  ? Zn
   Zn24       1.0     0.252784     0.746792     0.101050    Uiso  ? Zn
   H97        1.0     0.169023     0.895706     0.790716    Uiso  ? H
   H98        1.0     0.178581     0.870315     0.800498    Uiso  ? H
   H99        1.0     0.839709     0.897732     0.209542    Uiso  ? H
   H100       1.0     0.826868     0.874116     0.194743    Uiso  ? H
   H101       1.0     0.816364     0.172551     0.898197    Uiso  ? H
   H102       1.0     0.804714     0.170863     0.870377    Uiso  ? H
   H103       1.0     0.103746     0.167108     0.210198    Uiso  ? H
   H104       1.0     0.128310     0.178533     0.194488    Uiso  ? H
   H105       1.0     0.184591     0.813092     0.870469    Uiso  ? H
   H106       1.0     0.179078     0.826018     0.899242    Uiso  ? H
   H107       1.0     0.895194     0.811912     0.168562    Uiso  ? H
   H108       1.0     0.867888     0.809417     0.180798    Uiso  ? H
   H109       1.0     0.175903     0.129605     0.201728    Uiso  ? H
   H110       1.0     0.163936     0.102199     0.206463    Uiso  ? H
   H111       1.0     0.124520     0.820218     0.814950    Uiso  ? H
   H112       1.0     0.113756     0.833279     0.792163    Uiso  ? H
   H113       1.0     0.821043     0.819586     0.110520    Uiso  ? H
   H114       1.0     0.835575     0.795948     0.124240    Uiso  ? H
   H115       1.0     0.817155     0.136874     0.801337    Uiso  ? H
   H116       1.0     0.833268     0.110091     0.801898    Uiso  ? H
   H117       1.0     0.180741     0.173135     0.896919    Uiso  ? H
   H118       1.0     0.179433     0.179039     0.129142    Uiso  ? H
   H119       1.0     0.103708     0.170045     0.821608    Uiso  ? H
   H120       1.0     0.872821     0.176704     0.822889    Uiso  ? H
   C185       1.0     0.610169     0.350110     0.144345    Uiso  ? C
   C186       1.0     0.601424     0.341685     0.144345    Uiso  ? C
   C187       1.0     0.615333     0.325996     0.144345    Uiso  ? C
   H121       1.0     0.826289     0.630564     0.317877    Uiso  ? H
   C188       1.0     0.607837     0.316090     0.144345    Uiso  ? C
   H122       1.0     0.787916     0.617531     0.302953    Uiso  ? H
   C189       1.0     0.586833     0.325132     0.144345    Uiso  ? C
   H123       1.0     0.769980     0.580015     0.317419    Uiso  ? H
   C190       1.0     0.571354     0.341343     0.144345    Uiso  ? C
   C191       1.0     0.578051     0.347659     0.144345    Uiso  ? C
   H124       1.0     0.834028     0.565468     0.362370    Uiso  ? H
   C192       1.0     0.545690     0.348934     0.144345    Uiso  ? C
   C193       1.0     0.648848     0.394600     0.144345    Uiso  ? C
   C194       1.0     0.658670     0.406594     0.144345    Uiso  ? C
   C195       1.0     0.679669     0.395552     0.144345    Uiso  ? C
   H125       1.0     0.833188     0.684997     0.378743    Uiso  ? H
   C196       1.0     0.690488     0.404686     0.144345    Uiso  ? C
   H126       1.0     0.797060     0.705320     0.396660    Uiso  ? H
   C197       1.0     0.680953     0.426287     0.144345    Uiso  ? C
   H127       1.0     0.780090     0.687899     0.435516    Uiso  ? H
   C198       1.0     0.659592     0.437802     0.144345    Uiso  ? C
   C199       1.0     0.649555     0.429100     0.144345    Uiso  ? C
   H128       1.0     0.835300     0.634459     0.441246    Uiso  ? H
   C200       1.0     0.651435     0.462095     0.144345    Uiso  ? C
   C-201      1.0     0.648416     0.391878     0.144345    Uiso  ? C-
   C201       1.0     0.658980     0.404039     0.144345    Uiso  ? C
   C202       1.0     0.681064     0.394138     0.144345    Uiso  ? C
   H129       1.0     0.165702     0.688644     0.379031    Uiso  ? H
   C203       1.0     0.692510     0.406126     0.144345    Uiso  ? C
   H130       1.0     0.201469     0.707622     0.400852    Uiso  ? H
   C204       1.0     0.680215     0.424730     0.144345    Uiso  ? C
   H131       1.0     0.220402     0.688214     0.433365    Uiso  ? H
   C205       1.0     0.659907     0.435402     0.144345    Uiso  ? C
   C206       1.0     0.649291     0.425913     0.144345    Uiso  ? C
   H132       1.0     0.163774     0.632072     0.436933    Uiso  ? H
   C207       1.0     0.649967     0.457016     0.144345    Uiso  ? C
   C-208      1.0     0.607163     0.352506     0.144345    Uiso  ? C-
   C208       1.0     0.592682     0.340509     0.144345    Uiso  ? C
   C209       1.0     0.601783     0.318179     0.144345    Uiso  ? C
   H133       1.0     0.161062     0.615413     0.310028    Uiso  ? H
   C210       1.0     0.590141     0.306806     0.144345    Uiso  ? C
   H134       1.0     0.196426     0.595162     0.289225    Uiso  ? H
   C211       1.0     0.570513     0.318421     0.144345    Uiso  ? C
   H135       1.0     0.215435     0.558533     0.309379    Uiso  ? H
   C212       1.0     0.560975     0.340839     0.144345    Uiso  ? C
   C213       1.0     0.572581     0.352061     0.144345    Uiso  ? C
   H136       1.0     0.168026     0.565622     0.371573    Uiso  ? H
   C214       1.0     0.539092     0.351357     0.144345    Uiso  ? C
   C215       1.0     0.467736     0.395439     0.144345    Uiso  ? C
   C216       1.0     0.446725     0.408571     0.144345    Uiso  ? C
   C217       1.0     0.437276     0.399328     0.144345    Uiso  ? C
   H137       1.0     0.711422     0.443200     0.383590    Uiso  ? H
   C218       1.0     0.415278     0.406939     0.144345    Uiso  ? C
   H138       1.0     0.692350     0.407267     0.399859    Uiso  ? H
   C219       1.0     0.403056     0.427538     0.144345    Uiso  ? C
   H139       1.0     0.712012     0.385556     0.433823    Uiso  ? H
   C220       1.0     0.411867     0.438073     0.144345    Uiso  ? C
   C221       1.0     0.434199     0.428591     0.144345    Uiso  ? C
   H140       1.0     0.768143     0.439225     0.438364    Uiso  ? H
   C222       1.0     0.398353     0.460075     0.144345    Uiso  ? C
   C223       1.0     0.543777     0.391923     0.144345    Uiso  ? C
   C224       1.0     0.566347     0.404935     0.144345    Uiso  ? C
   C225       1.0     0.581202     0.393141     0.144345    Uiso  ? C
   H141       1.0     0.717775     0.575671     0.375701    Uiso  ? H
   C226       1.0     0.602341     0.403654     0.144345    Uiso  ? C
   H142       1.0     0.701096     0.612583     0.394960    Uiso  ? H
   C227       1.0     0.612559     0.425810     0.144345    Uiso  ? C
   H143       1.0     0.717080     0.627915     0.434961    Uiso  ? H
   C228       1.0     0.598269     0.439280     0.144345    Uiso  ? C
   C229       1.0     0.574735     0.429344     0.144345    Uiso  ? C
   H144       1.0     0.762006     0.563327     0.440925    Uiso  ? H
   C230       1.0     0.608919     0.463043     0.144345    Uiso  ? C
   C231       1.0     0.466432     0.350866     0.144345    Uiso  ? C
   C232       1.0     0.446728     0.338994     0.144345    Uiso  ? C
   C233       1.0     0.439463     0.314565     0.144345    Uiso  ? C
   H145       1.0     0.790489     0.448802     0.306921    Uiso  ? H
   C234       1.0     0.422136     0.303533     0.144345    Uiso  ? C
   H146       1.0     0.811658     0.416875     0.286628    Uiso  ? H
   C235       1.0     0.407317     0.317350     0.144345    Uiso  ? C
   H147       1.0     0.840905     0.391288     0.308581    Uiso  ? H
   C236       1.0     0.411649     0.341218     0.144345    Uiso  ? C
   C237       1.0     0.432929     0.353006     0.144345    Uiso  ? C
   H148       1.0     0.833250     0.438265     0.372163    Uiso  ? H
   C238       1.0     0.394331     0.351892     0.144345    Uiso  ? C
   C239       1.0     0.612246     0.540925     0.144345    Uiso  ? C
   C240       1.0     0.596804     0.561330     0.144345    Uiso  ? C
   C241       1.0     0.601028     0.566604     0.144345    Uiso  ? C
   H149       1.0     0.704838     0.614175     0.560168    Uiso  ? H
   C242       1.0     0.585946     0.582561     0.144345    Uiso  ? C
   H150       1.0     0.682713     0.586899     0.584711    Uiso  ? H
   C243       1.0     0.568419     0.595376     0.144345    Uiso  ? C
   H151       1.0     0.702034     0.556869     0.610026    Uiso  ? H
   C244       1.0     0.563660     0.592442     0.144345    Uiso  ? C
   C245       1.0     0.577223     0.573469     0.144345    Uiso  ? C
   H152       1.0     0.770130     0.570826     0.570430    Uiso  ? H
   C246       1.0     0.544197     0.608089     0.144345    Uiso  ? C
   C247       1.0     0.655228     0.539205     0.144345    Uiso  ? C
   C248       1.0     0.665842     0.561040     0.144345    Uiso  ? C
   C249       1.0     0.689634     0.569357     0.144345    Uiso  ? C
   H153       1.0     0.786219     0.698833     0.562304    Uiso  ? H
   C250       1.0     0.701491     0.586996     0.144345    Uiso  ? C
   H154       1.0     0.811704     0.718714     0.594404    Uiso  ? H
   C251       1.0     0.688778     0.597565     0.144345    Uiso  ? C
   H155       1.0     0.842274     0.696245     0.614162    Uiso  ? H
   C252       1.0     0.663851     0.593240     0.144345    Uiso  ? C
   C253       1.0     0.653059     0.572510     0.144345    Uiso  ? C
   H156       1.0     0.829579     0.633136     0.568577    Uiso  ? H
   C254       1.0     0.652393     0.606611     0.144345    Uiso  ? C
   C255       1.0     0.353160     0.391881     0.144345    Uiso  ? C
   C256       1.0     0.342065     0.406767     0.144345    Uiso  ? C
   C257       1.0     0.316926     0.403603     0.144345    Uiso  ? C
   H157       1.0     0.842612     0.305036     0.391015    Uiso  ? H
   C258       1.0     0.304379     0.419326     0.144345    Uiso  ? C
   H158       1.0     0.813999     0.283697     0.419721    Uiso  ? H
   C259       1.0     0.316632     0.435928     0.144345    Uiso  ? C
   H159       1.0     0.790858     0.303563     0.448635    Uiso  ? H
   C260       1.0     0.342140     0.439307     0.144345    Uiso  ? C
   C261       1.0     0.354120     0.425298     0.144345    Uiso  ? C
   H160       1.0     0.825565     0.372116     0.429044    Uiso  ? H
   C262       1.0     0.353056     0.459800     0.144345    Uiso  ? C
   C-263      1.0     0.392759     0.349628     0.144345    Uiso  ? C-
   C263       1.0     0.401724     0.343455     0.144345    Uiso  ? C
   C264       1.0     0.386602     0.330324     0.144345    Uiso  ? C
   H161       1.0     0.175979     0.367261     0.326766    Uiso  ? H
   C265       1.0     0.396195     0.322830     0.144345    Uiso  ? C
   H162       1.0     0.216307     0.384114     0.312334    Uiso  ? H
   C266       1.0     0.418733     0.329097     0.144345    Uiso  ? C
   H163       1.0     0.229791     0.422940     0.325027    Uiso  ? H
   C267       1.0     0.435294     0.343000     0.144345    Uiso  ? C
   C268       1.0     0.425884     0.350194     0.144345    Uiso  ? C
   H164       1.0     0.162874     0.436732     0.362916    Uiso  ? H
   C269       1.0     0.460094     0.350571     0.144345    Uiso  ? C
   C270       1.0     0.539888     0.392042     0.144345    Uiso  ? C
   C271       1.0     0.561847     0.405369     0.144345    Uiso  ? C
   C272       1.0     0.568956     0.398879     0.144345    Uiso  ? C
   H165       1.0     0.291131     0.561117     0.384713    Uiso  ? H
   C273       1.0     0.587835     0.411980     0.144345    Uiso  ? C
   H166       1.0     0.311865     0.590115     0.409291    Uiso  ? H
   C274       1.0     0.601753     0.429170     0.144345    Uiso  ? C
   H167       1.0     0.288541     0.616301     0.437771    Uiso  ? H
   C275       1.0     0.594794     0.436992     0.144345    Uiso  ? C
   C276       1.0     0.575007     0.424411     0.144345    Uiso  ? C
   H168       1.0     0.227076     0.568633     0.429969    Uiso  ? H
   C277       1.0     0.608245     0.458043     0.144345    Uiso  ? C
   O109       1.0     0.872948     0.595107     0.364105    Uiso  ? O
   O110       1.0     0.864822     0.631359     0.348718    Uiso  ? O
   O111       1.0     0.876545     0.636285     0.408767    Uiso  ? O
   O112       1.0     0.866886     0.653011     0.372825    Uiso  ? O
   O113       1.0     0.134476     0.625232     0.395494    Uiso  ? O
   O114       1.0     0.127566     0.660813     0.378053    Uiso  ? O
   O115       1.0     0.134594     0.603838     0.375761    Uiso  ? O
   O116       1.0     0.129848     0.622489     0.340379    Uiso  ? O
   O117       1.0     0.777560     0.470810     0.398818    Uiso  ? O
   O118       1.0     0.742841     0.477930     0.379791    Uiso  ? O
   O119       1.0     0.764878     0.528263     0.405023    Uiso  ? O
   O120       1.0     0.745443     0.538459     0.370165    Uiso  ? O
   O121       1.0     0.805371     0.530965     0.362039    Uiso  ? O
   O122       1.0     0.767670     0.538980     0.347778    Uiso  ? O
   O123       1.0     0.798007     0.468945     0.375779    Uiso  ? O
   O124       1.0     0.780145     0.479013     0.340051    Uiso  ? O
   O125       1.0     0.774928     0.607727     0.536831    Uiso  ? O
   O126       1.0     0.739866     0.627782     0.530154    Uiso  ? O
   O127       1.0     0.797648     0.631064     0.535457    Uiso  ? O
   O128       1.0     0.776437     0.665464     0.528540    Uiso  ? O
   O129       1.0     0.805560     0.639318     0.479053    Uiso  ? O
   O130       1.0     0.770202     0.654662     0.466878    Uiso  ? O
   O131       1.0     0.763893     0.594570     0.478784    Uiso  ? O
   O132       1.0     0.747170     0.630504     0.470480    Uiso  ? O
   O133       1.0     0.864600     0.374449     0.396389    Uiso  ? O
   O134       1.0     0.871400     0.338351     0.379207    Uiso  ? O
   O135       1.0     0.864289     0.395624     0.375712    Uiso  ? O
   O136       1.0     0.870713     0.377769     0.338921    Uiso  ? O
   O137       1.0     0.125292     0.405309     0.362367    Uiso  ? O
   O138       1.0     0.134868     0.367961     0.349122    Uiso  ? O
   O139       1.0     0.125426     0.362674     0.409612    Uiso  ? O
   O140       1.0     0.136140     0.346640     0.373345    Uiso  ? O
   O141       1.0     0.197271     0.472923     0.367349    Uiso  ? O
   O142       1.0     0.230805     0.464761     0.345772    Uiso  ? O
   O143       1.0     0.202503     0.532077     0.375014    Uiso  ? O
   O144       1.0     0.224482     0.525462     0.340919    Uiso  ? O
   O145       1.0     0.224505     0.534526     0.397556    Uiso  ? O
   O146       1.0     0.259354     0.526171     0.378987    Uiso  ? O
   O147       1.0     0.239835     0.476243     0.409480    Uiso  ? O
   O148       1.0     0.257181     0.467159     0.374226    Uiso  ? O
   O149       1.0     0.804789     0.362235     0.523751    Uiso  ? O
   O150       1.0     0.768703     0.348553     0.533499    Uiso  ? O
   O151       1.0     0.759081     0.408978     0.522022    Uiso  ? O
   O152       1.0     0.744492     0.373389     0.535036    Uiso  ? O
   O153       1.0     0.773413     0.398628     0.466778    Uiso  ? O
   O154       1.0     0.737912     0.380828     0.472984    Uiso  ? O
   O155       1.0     0.790925     0.374874     0.466021    Uiso  ? O
   O156       1.0     0.773684     0.338809     0.473746    Uiso  ? O
   O157       1.0     0.889632     0.578600     0.407225    Uiso  ? O
   O158       1.0     0.816675     0.516144     0.415933    Uiso  ? O
   O159       1.0     0.799405     0.582793     0.486268    Uiso  ? O
   O160       1.0     0.112199     0.401616     0.424310    Uiso  ? O
   O161       1.0     0.183728     0.489562     0.411848    Uiso  ? O
   O162       1.0     0.819432     0.397829     0.514189    Uiso  ? O
   Zn25       1.0     0.898086     0.610249     0.389232    Uiso  ? Zn
   Zn26       1.0     0.102356     0.652125     0.348754    Uiso  ? Zn
   Zn27       1.0     0.791704     0.506345     0.389740    Uiso  ? Zn
   Zn28       1.0     0.748866     0.503242     0.348987    Uiso  ? Zn
   Zn29       1.0     0.786256     0.616411     0.500703    Uiso  ? Zn
   Zn30       1.0     0.746205     0.656532     0.501623    Uiso  ? Zn
   Zn31       1.0     0.102637     0.387857     0.389848    Uiso  ? Zn
   Zn32       1.0     0.898562     0.346864     0.350062    Uiso  ? Zn
   Zn33       1.0     0.212396     0.497668     0.390623    Uiso  ? Zn
   Zn34       1.0     0.252742     0.499619     0.349342    Uiso  ? Zn
   Zn35       1.0     0.784516     0.386968     0.502158    Uiso  ? Zn
   Zn36       1.0     0.744508     0.349269     0.500418    Uiso  ? Zn
   C-278      1.0     0.396162     0.648540     0.144345    Uiso  ? C-
   C278       1.0     0.410801     0.659721     0.144345    Uiso  ? C
   C279       1.0     0.409103     0.685230     0.144345    Uiso  ? C
   H169       1.0     0.149664     0.396796     0.697778    Uiso  ? H
   C280       1.0     0.423140     0.697115     0.144345    Uiso  ? C
   H170       1.0     0.183750     0.418622     0.717331    Uiso  ? H
   C281       1.0     0.439357     0.684726     0.144345    Uiso  ? C
   H171       1.0     0.208032     0.449549     0.696651    Uiso  ? H
   C282       1.0     0.443871     0.659040     0.144345    Uiso  ? C
   C283       1.0     0.428401     0.646453     0.144345    Uiso  ? C
   H172       1.0     0.168849     0.430458     0.627952    Uiso  ? H
   C284       1.0     0.463710     0.646671     0.144345    Uiso  ? C
   C-285      1.0     0.354644     0.609163     0.144345    Uiso  ? C-
   C285       1.0     0.342997     0.595990     0.144345    Uiso  ? C
   C286       1.0     0.321087     0.605587     0.144345    Uiso  ? C
   H173       1.0     0.161609     0.310642     0.622325    Uiso  ? H
   C287       1.0     0.309759     0.594204     0.144345    Uiso  ? C
   H174       1.0     0.195302     0.291174     0.601676    Uiso  ? H
   C288       1.0     0.321208     0.576190     0.144345    Uiso  ? C
   H175       1.0     0.219676     0.313304     0.569888    Uiso  ? H
   C289       1.0     0.341801     0.564764     0.144345    Uiso  ? C
   C290       1.0     0.354014     0.575345     0.144345    Uiso  ? C
   H176       1.0     0.164070     0.369388     0.569531    Uiso  ? H
   C291       1.0     0.353717     0.543246     0.144345    Uiso  ? C
   C292       1.0     0.349429     0.608060     0.144345    Uiso  ? C
   C293       1.0     0.339956     0.595162     0.144345    Uiso  ? C
   C294       1.0     0.321286     0.606248     0.144345    Uiso  ? C
   H177       1.0     0.826249     0.311622     0.625186    Uiso  ? H
   C295       1.0     0.315591     0.597117     0.144345    Uiso  ? C
   H178       1.0     0.786036     0.301439     0.607714    Uiso  ? H
   C296       1.0     0.324227     0.574189     0.144345    Uiso  ? C
   H179       1.0     0.771022     0.318605     0.568403    Uiso  ? H
   C297       1.0     0.341913     0.561725     0.144345    Uiso  ? C
   C298       1.0     0.348522     0.570910     0.144345    Uiso  ? C
   H180       1.0     0.833688     0.362117     0.561359    Uiso  ? H
   C299       1.0     0.352480     0.537569     0.144345    Uiso  ? C
   C300       1.0     0.392988     0.652539     0.144345    Uiso  ? C
   C301       1.0     0.406106     0.659271     0.144345    Uiso  ? C
   C302       1.0     0.391477     0.668619     0.144345    Uiso  ? C
   H181       1.0     0.816719     0.370960     0.670749    Uiso  ? H
   C303       1.0     0.400762     0.673779     0.144345    Uiso  ? C
   H182       1.0     0.775622     0.387556     0.679115    Uiso  ? H
   C304       1.0     0.425825     0.671040     0.144345    Uiso  ? C
   H183       1.0     0.765005     0.429610     0.672365    Uiso  ? H
   C305       1.0     0.442279     0.660102     0.144345    Uiso  ? C
   C306       1.0     0.431962     0.653568     0.144345    Uiso  ? C
   H184       1.0     0.840213     0.443988     0.648148    Uiso  ? H
   C307       1.0     0.465281     0.650773     0.144345    Uiso  ? C
   C308       1.0     0.541627     0.601641     0.144345    Uiso  ? C
   C309       1.0     0.565076     0.590676     0.144345    Uiso  ? C
   C310       1.0     0.578335     0.602352     0.144345    Uiso  ? C
   H185       1.0     0.288387     0.568060     0.618476    Uiso  ? H
   C311       1.0     0.601233     0.594063     0.144345    Uiso  ? C
   H186       1.0     0.303997     0.608599     0.604246    Uiso  ? H
   C312       1.0     0.612175     0.574426     0.144345    Uiso  ? C
   H187       1.0     0.281689     0.629013     0.571238    Uiso  ? H
   C313       1.0     0.599004     0.560848     0.144345    Uiso  ? C
   C314       1.0     0.574569     0.568485     0.144345    Uiso  ? C
   H188       1.0     0.237523     0.563021     0.561911    Uiso  ? H
   C315       1.0     0.610625     0.536944     0.144345    Uiso  ? C
   C316       1.0     0.461282     0.606554     0.144345    Uiso  ? C
   C317       1.0     0.440945     0.593266     0.144345    Uiso  ? C
   C318       1.0     0.435382     0.597835     0.144345    Uiso  ? C
   H189       1.0     0.297953     0.443620     0.614442    Uiso  ? H
   C319       1.0     0.415214     0.585669     0.144345    Uiso  ? C
   H190       1.0     0.317854     0.409681     0.590522    Uiso  ? H
   C320       1.0     0.402098     0.568699     0.144345    Uiso  ? C
   H191       1.0     0.295149     0.385373     0.562255    Uiso  ? H
   C321       1.0     0.407789     0.563000     0.144345    Uiso  ? C
   C322       1.0     0.427983     0.575470     0.144345    Uiso  ? C
   H192       1.0     0.230854     0.432643     0.571848    Uiso  ? H
   C323       1.0     0.394450     0.540419     0.144345    Uiso  ? C
   C324       1.0     0.539650     0.645495     0.144345    Uiso  ? C
   C325       1.0     0.565085     0.650623     0.144345    Uiso  ? C
   C326       1.0     0.582893     0.657302     0.144345    Uiso  ? C
   H193       1.0     0.234166     0.575576     0.662238    Uiso  ? H
   C327       1.0     0.607302     0.660225     0.144345    Uiso  ? C
   H194       1.0     0.224652     0.618628     0.667324    Uiso  ? H
   C328       1.0     0.615510     0.656316     0.144345    Uiso  ? C
   H195       1.0     0.182755     0.634455     0.659846    Uiso  ? H
   C329       1.0     0.598205     0.650736     0.144345    Uiso  ? C
   C330       1.0     0.572924     0.647063     0.144345    Uiso  ? C
   H196       1.0     0.159536     0.560410     0.640253    Uiso  ? H
   C-331      1.0     0.609672     0.645594     0.144345    Uiso  ? C-
   C331       1.0     0.396175     0.462030     0.144345    Uiso  ? C
   C332       1.0     0.407067     0.438212     0.144345    Uiso  ? C
   C333       1.0     0.391685     0.423229     0.144345    Uiso  ? C
   H197       1.0     0.281448     0.373819     0.430579    Uiso  ? H
   C334       1.0     0.400414     0.400844     0.144345    Uiso  ? C
   H198       1.0     0.293958     0.388252     0.390093    Uiso  ? H
   C335       1.0     0.423825     0.392887     0.144345    Uiso  ? C
   H199       1.0     0.282525     0.428073     0.375675    Uiso  ? H
   C336       1.0     0.440306     0.407397     0.144345    Uiso  ? C
   C337       1.0     0.432286     0.431599     0.144345    Uiso  ? C
   H200       1.0     0.243881     0.441920     0.444697    Uiso  ? H
   C338       1.0     0.463193     0.396093     0.144345    Uiso  ? C
   C339       1.0     0.351795     0.462233     0.144345    Uiso  ? C
   C340       1.0     0.343191     0.438881     0.144345    Uiso  ? C
   C341       1.0     0.325966     0.425642     0.144345    Uiso  ? C
   H201       1.0     0.226038     0.316602     0.433458    Uiso  ? H
   C342       1.0     0.315086     0.404523     0.144345    Uiso  ? C
   H202       1.0     0.209250     0.300420     0.394642    Uiso  ? H
   C343       1.0     0.324641     0.394895     0.144345    Uiso  ? C
   H203       1.0     0.171349     0.315546     0.379056    Uiso  ? H
   C344       1.0     0.341935     0.407289     0.144345    Uiso  ? C
   C345       1.0     0.352142     0.428816     0.144345    Uiso  ? C
   H204       1.0     0.164057     0.365864     0.439058    Uiso  ? H
   C-346      1.0     0.350790     0.395320     0.144345    Uiso  ? C-
   C-347      1.0     0.657342     0.605578     0.144345    Uiso  ? C-
   C346       1.0     0.666139     0.593979     0.144345    Uiso  ? C
   C347       1.0     0.684774     0.606541     0.144345    Uiso  ? C
   H205       1.0     0.167765     0.691747     0.625252    Uiso  ? H
   C348       1.0     0.692070     0.597987     0.144345    Uiso  ? C
   H206       1.0     0.210106     0.703240     0.611348    Uiso  ? H
   C349       1.0     0.682024     0.576290     0.144345    Uiso  ? C
   H207       1.0     0.227046     0.685693     0.572726    Uiso  ? H
   C350       1.0     0.663992     0.562394     0.144345    Uiso  ? C
   C351       1.0     0.656903     0.571216     0.144345    Uiso  ? C
   H208       1.0     0.161902     0.641183     0.562464    Uiso  ? H
   C352       1.0     0.653521     0.539068     0.144345    Uiso  ? C
   C353       1.0     0.609174     0.647217     0.144345    Uiso  ? C
   C354       1.0     0.594959     0.659549     0.144345    Uiso  ? C
   C355       1.0     0.600583     0.684239     0.144345    Uiso  ? C
   H209       1.0     0.843734     0.613654     0.695605    Uiso  ? H
   C356       1.0     0.587454     0.697554     0.144345    Uiso  ? C
   H210       1.0     0.814561     0.590097     0.717644    Uiso  ? H
   C357       1.0     0.568476     0.686897     0.144345    Uiso  ? C
   H211       1.0     0.791473     0.557256     0.699749    Uiso  ? H
   C358       1.0     0.564259     0.661244     0.144345    Uiso  ? C
   C359       1.0     0.578077     0.647157     0.144345    Uiso  ? C
   H212       1.0     0.824739     0.574303     0.629394    Uiso  ? H
   C360       1.0     0.544560     0.649139     0.144345    Uiso  ? C
   C361       1.0     0.464230     0.605061     0.144345    Uiso  ? C
   C362       1.0     0.440597     0.592881     0.144345    Uiso  ? C
   C363       1.0     0.427296     0.604296     0.144345    Uiso  ? C
   H213       1.0     0.715051     0.432596     0.622365    Uiso  ? H
   C364       1.0     0.406659     0.593581     0.144345    Uiso  ? C
   H214       1.0     0.698582     0.394554     0.605223    Uiso  ? H
   C365       1.0     0.397978     0.571048     0.144345    Uiso  ? C
   H215       1.0     0.710693     0.380117     0.564728    Uiso  ? H
   C366       1.0     0.410007     0.558776     0.144345    Uiso  ? C
   C367       1.0     0.433114     0.568970     0.144345    Uiso  ? C
   H216       1.0     0.761834     0.440018     0.559808    Uiso  ? H
   C368       1.0     0.397844     0.536428     0.144345    Uiso  ? C
   O163       1.0     0.132572     0.396924     0.626565    Uiso  ? O
   O164       1.0     0.126596     0.379282     0.663321    Uiso  ? O
   O165       1.0     0.131233     0.377115     0.606325    Uiso  ? O
   O166       1.0     0.125403     0.342172     0.626911    Uiso  ? O
   O167       1.0     0.872970     0.360632     0.597140    Uiso  ? O
   O168       1.0     0.862144     0.346488     0.632469    Uiso  ? O
   O169       1.0     0.872327     0.404556     0.643924    Uiso  ? O
   O170       1.0     0.859310     0.368560     0.655930    Uiso  ? O
   O171       1.0     0.236935     0.526157     0.590797    Uiso  ? O
   O172       1.0     0.257005     0.535580     0.625481    Uiso  ? O
   O173       1.0     0.227114     0.464180     0.605160    Uiso  ? O
   O174       1.0     0.263215     0.474971     0.621398    Uiso  ? O
   O175       1.0     0.203222     0.466921     0.624479    Uiso  ? O
   O176       1.0     0.223874     0.473849     0.658948    Uiso  ? O
   O177       1.0     0.193509     0.523673     0.635723    Uiso  ? O
   O178       1.0     0.230811     0.533174     0.648305    Uiso  ? O
   O179       1.0     0.236600     0.408624     0.477523    Uiso  ? O
   O180       1.0     0.254676     0.373171     0.470516    Uiso  ? O
   O181       1.0     0.195119     0.363105     0.477331    Uiso  ? O
   O182       1.0     0.230604     0.345876     0.469317    Uiso  ? O
   O183       1.0     0.202597     0.374785     0.538690    Uiso  ? O
   O184       1.0     0.224638     0.341650     0.532436    Uiso  ? O
   O185       1.0     0.226347     0.397849     0.535426    Uiso  ? O
   O186       1.0     0.260869     0.376252     0.530570    Uiso  ? O
   O187       1.0     0.123967     0.644111     0.594574    Uiso  ? O
   O188       1.0     0.136184     0.656769     0.630108    Uiso  ? O
   O189       1.0     0.126894     0.596523     0.634365    Uiso  ? O
   O190       1.0     0.136699     0.632081     0.651689    Uiso  ? O
   O191       1.0     0.865679     0.606629     0.624457    Uiso  ? O
   O192       1.0     0.873647     0.623191     0.660709    Uiso  ? O
   O193       1.0     0.863765     0.628049     0.604915    Uiso  ? O
   O194       1.0     0.872488     0.663634     0.623563    Uiso  ? O
   O195       1.0     0.795822     0.537677     0.628992    Uiso  ? O
   O196       1.0     0.776274     0.529582     0.663400    Uiso  ? O
   O197       1.0     0.803803     0.478327     0.638729    Uiso  ? O
   O198       1.0     0.767844     0.467901     0.652733    Uiso  ? O
   O199       1.0     0.763787     0.478335     0.594312    Uiso  ? O
   O200       1.0     0.744964     0.467633     0.629478    Uiso  ? O
   O201       1.0     0.772530     0.537146     0.605382    Uiso  ? O
   O202       1.0     0.736701     0.529886     0.623781    Uiso  ? O
   O203       1.0     0.202226     0.627532     0.465893    Uiso  ? O
   O204       1.0     0.225371     0.659745     0.468214    Uiso  ? O
   O205       1.0     0.224581     0.602167     0.467124    Uiso  ? O
   O206       1.0     0.257518     0.625858     0.468672    Uiso  ? O
   O207       1.0     0.237767     0.596486     0.522563    Uiso  ? O
   O208       1.0     0.253526     0.631905     0.533735    Uiso  ? O
   O209       1.0     0.193369     0.639033     0.526093    Uiso  ? O
   O210       1.0     0.228543     0.658701     0.534067    Uiso  ? O
   O211       1.0     0.877231     0.390326     0.583449    Uiso  ? O
   O212       1.0     0.204713     0.516267     0.580661    Uiso  ? O
   O213       1.0     0.179697     0.402693     0.489978    Uiso  ? O
   O214       1.0     0.119100     0.609582     0.577338    Uiso  ? O
   O215       1.0     0.820163     0.498712     0.590511    Uiso  ? O
   O216       1.0     0.182907     0.608456     0.519095    Uiso  ? O
   Zn37       1.0     0.894756     0.383675     0.617681    Uiso  ? Zn
   Zn38       1.0     0.895869     0.348437     0.657210    Uiso  ? Zn
   Zn39       1.0     0.215479     0.502237     0.613794    Uiso  ? Zn
   Zn40       1.0     0.255591     0.500429     0.649029    Uiso  ? Zn
   Zn41       1.0     0.212950     0.387331     0.501128    Uiso  ? Zn
   Zn42       1.0     0.253381     0.347622     0.502158    Uiso  ? Zn
   Zn43       1.0     0.103478     0.615820     0.612925    Uiso  ? Zn
   Zn44       1.0     0.101678     0.652746     0.652676    Uiso  ? Zn
   Zn45       1.0     0.789073     0.501720     0.611660    Uiso  ? Zn
   Zn46       1.0     0.746734     0.503391     0.652770    Uiso  ? Zn
   Zn47       1.0     0.215338     0.618450     0.501531    Uiso  ? Zn
   Zn48       1.0     0.253643     0.655660     0.498875    Uiso  ? Zn
   H217       1.0     0.194472     0.530934     0.581189    Uiso  ? H
   H218       1.0     0.206120     0.509516     0.564166    Uiso  ? H
   H219       1.0     0.827049     0.505396     0.424929    Uiso  ? H
   H220       1.0     0.820599     0.533253     0.416237    Uiso  ? H
   H221       1.0     0.831984     0.389524     0.504532    Uiso  ? H
   H222       1.0     0.822195     0.414887     0.518249    Uiso  ? H
   H223       1.0     0.109928     0.394319     0.439606    Uiso  ? H
   H224       1.0     0.114982     0.418677     0.424783    Uiso  ? H
   H225       1.0     0.182636     0.599177     0.534706    Uiso  ? H
   H226       1.0     0.169087     0.606981     0.508646    Uiso  ? H
   H227       1.0     0.893354     0.579071     0.424999    Uiso  ? H
   H228       1.0     0.888628     0.562354     0.399753    Uiso  ? H
   H229       1.0     0.167611     0.493537     0.407217    Uiso  ? H
   H230       1.0     0.184934     0.479553     0.426334    Uiso  ? H
   H231       1.0     0.133403     0.599835     0.575719    Uiso  ? H
   H232       1.0     0.110296     0.614409     0.563186    Uiso  ? H
   H233       1.0     0.805382     0.582955     0.469897    Uiso  ? H
   H234       1.0     0.802052     0.568320     0.496944    Uiso  ? H
   H235       1.0     0.820242     0.505928     0.574292    Uiso  ? H
   H236       1.0     0.835256     0.500476     0.599601    Uiso  ? H
   H237       1.0     0.178898     0.419840     0.485380    Uiso  ? H
   H238       1.0     0.165304     0.394534     0.496250    Uiso  ? H
   H239       1.0     0.862988     0.401489     0.583449    Uiso  ? H
   H240       1.0     0.887412     0.389245     0.568547    Uiso  ? H
   C369       1.0     0.138811     0.606655     0.144345    Uiso  ? C
   C370       1.0     0.164183     0.596184     0.144345    Uiso  ? C
   C371       1.0     0.179087     0.610110     0.144345    Uiso  ? C
   H241       1.0     0.679539     0.171858     0.629157    Uiso  ? H
   C372       1.0     0.202097     0.603306     0.144345    Uiso  ? C
   H242       1.0     0.687447     0.214015     0.616483    Uiso  ? H
   C373       1.0     0.211419     0.580775     0.144345    Uiso  ? C
   H243       1.0     0.677373     0.228272     0.576957    Uiso  ? H
   C374       1.0     0.198067     0.565003     0.144345    Uiso  ? C
   C375       1.0     0.173975     0.572837     0.144345    Uiso  ? C
   H244       1.0     0.635377     0.162616     0.562583    Uiso  ? H
   C376       1.0     0.208891     0.540430     0.144345    Uiso  ? C
   C377       1.0     0.139229     0.650002     0.144345    Uiso  ? C
   C378       1.0     0.163704     0.658304     0.144345    Uiso  ? C
   C379       1.0     0.176602     0.675757     0.144345    Uiso  ? C
   H245       1.0     0.626765     0.168387     0.684972    Uiso  ? H
   C380       1.0     0.198732     0.685103     0.144345    Uiso  ? C
   H246       1.0     0.613378     0.206171     0.699329    Uiso  ? H
   C381       1.0     0.209368     0.676102     0.144345    Uiso  ? C
   H247       1.0     0.576716     0.226452     0.682678    Uiso  ? H
   C382       1.0     0.197962     0.658463     0.144345    Uiso  ? C
   C383       1.0     0.173604     0.650938     0.144345    Uiso  ? C
   H248       1.0     0.561433     0.161510     0.640910    Uiso  ? H
   C384       1.0     0.209115     0.650117     0.144345    Uiso  ? C
   C385       1.0     0.860711     0.647305     0.144345    Uiso  ? C
   C386       1.0     0.838071     0.656950     0.144345    Uiso  ? C
   C387       1.0     0.829835     0.680714     0.144345    Uiso  ? C
   H249       1.0     0.619542     0.833048     0.690844    Uiso  ? H
   C388       1.0     0.812023     0.692041     0.144345    Uiso  ? C
   H250       1.0     0.594576     0.801945     0.710183    Uiso  ? H
   C389       1.0     0.801477     0.680844     0.144345    Uiso  ? C
   H251       1.0     0.557113     0.785792     0.691097    Uiso  ? H
   C390       1.0     0.809264     0.656450     0.144345    Uiso  ? C
   C391       1.0     0.827855     0.645008     0.144345    Uiso  ? C
   H252       1.0     0.566989     0.833981     0.628892    Uiso  ? H
   C392       1.0     0.795162     0.644230     0.144345    Uiso  ? C
   C393       1.0     0.861112     0.604781     0.144345    Uiso  ? C
   C394       1.0     0.841645     0.589584     0.144345    Uiso  ? C
   C395       1.0     0.835840     0.592594     0.144345    Uiso  ? C
   H253       1.0     0.695012     0.845757     0.605827    Uiso  ? H
   C396       1.0     0.819409     0.577912     0.144345    Uiso  ? C
   H254       1.0     0.714864     0.814783     0.582185    Uiso  ? H
   C397       1.0     0.806053     0.560251     0.144345    Uiso  ? C
   H255       1.0     0.692043     0.792583     0.549514    Uiso  ? H
   C398       1.0     0.810583     0.555893     0.144345    Uiso  ? C
   C399       1.0     0.829278     0.570011     0.144345    Uiso  ? C
   H256       1.0     0.627745     0.832462     0.565776    Uiso  ? H
   C400       1.0     0.796806     0.534691     0.144345    Uiso  ? C
   C401       1.0     0.248905     0.458575     0.144345    Uiso  ? C
   C402       1.0     0.262138     0.439231     0.144345    Uiso  ? C
   C403       1.0     0.283921     0.430868     0.144345    Uiso  ? C
   H257       1.0     0.619357     0.290870     0.439293    Uiso  ? H
   C404       1.0     0.296695     0.411656     0.144345    Uiso  ? C
   H258       1.0     0.597683     0.312473     0.406886    Uiso  ? H
   C405       1.0     0.284999     0.398699     0.144345    Uiso  ? C
   H259       1.0     0.565104     0.293012     0.383418    Uiso  ? H
   C406       1.0     0.262982     0.407331     0.144345    Uiso  ? C
   C407       1.0     0.251378     0.427027     0.144345    Uiso  ? C
   H260       1.0     0.566045     0.233036     0.436635    Uiso  ? H
   C408       1.0     0.251383     0.393457     0.144345    Uiso  ? C
   C409       1.0     0.253763     0.538053     0.144345    Uiso  ? C
   C410       1.0     0.259759     0.563167     0.144345    Uiso  ? C
   C411       1.0     0.272172     0.579822     0.144345    Uiso  ? C
   H261       1.0     0.631609     0.276781     0.574918    Uiso  ? H
   C412       1.0     0.278259     0.604056     0.144345    Uiso  ? C
   H262       1.0     0.619722     0.285316     0.618785    Uiso  ? H
   C413       1.0     0.275170     0.612050     0.144345    Uiso  ? C
   H263       1.0     0.579399     0.277860     0.631260    Uiso  ? H
   C414       1.0     0.261389     0.596946     0.144345    Uiso  ? C
   C415       1.0     0.253782     0.572348     0.144345    Uiso  ? C
   H264       1.0     0.560894     0.244197     0.560996    Uiso  ? H
   C416       1.0     0.255693     0.607802     0.144345    Uiso  ? C
   C417       1.0     0.212734     0.458928     0.144345    Uiso  ? C
   C418       1.0     0.198336     0.438937     0.144345    Uiso  ? C
   C419       1.0     0.202956     0.432301     0.144345    Uiso  ? C
   H265       1.0     0.692581     0.218737     0.441101    Uiso  ? H
   C420       1.0     0.189052     0.413515     0.144345    Uiso  ? C
   H266       1.0     0.714889     0.192592     0.409760    Uiso  ? H
   C421       1.0     0.169482     0.402194     0.144345    Uiso  ? C
   H267       1.0     0.693497     0.157300     0.390617    Uiso  ? H
   C422       1.0     0.164422     0.407866     0.144345    Uiso  ? C
   C423       1.0     0.179286     0.425754     0.144345    Uiso  ? C
   H268       1.0     0.628289     0.173495     0.431051    Uiso  ? H
   C424       1.0     0.141715     0.394997     0.144345    Uiso  ? C
   C425       1.0     0.251605     0.610242     0.144345    Uiso  ? C
   C426       1.0     0.263064     0.596805     0.144345    Uiso  ? C
   C427       1.0     0.284968     0.607628     0.144345    Uiso  ? C
   H269       1.0     0.436589     0.290632     0.626653    Uiso  ? H
   C428       1.0     0.293921     0.597858     0.144345    Uiso  ? C
   H270       1.0     0.398956     0.309847     0.607410    Uiso  ? H
   C429       1.0     0.284431     0.576426     0.144345    Uiso  ? C
   H271       1.0     0.381090     0.292573     0.568875    Uiso  ? H
   C430       1.0     0.264964     0.563704     0.144345    Uiso  ? C
   C431       1.0     0.255009     0.573935     0.144345    Uiso  ? C
   H272       1.0     0.438767     0.238244     0.567386    Uiso  ? H
   C432       1.0     0.254375     0.540745     0.144345    Uiso  ? C
   C433       1.0     0.208986     0.648467     0.144345    Uiso  ? C
   C434       1.0     0.195068     0.659527     0.144345    Uiso  ? C
   C435       1.0     0.203105     0.682546     0.144345    Uiso  ? C
   H273       1.0     0.442885     0.218533     0.692348    Uiso  ? H
   C436       1.0     0.193008     0.694001     0.144345    Uiso  ? C
   H274       1.0     0.408835     0.197828     0.713010    Uiso  ? H
   C437       1.0     0.171573     0.684530     0.144345    Uiso  ? C
   H275       1.0     0.392404     0.159917     0.697527    Uiso  ? H
   C438       1.0     0.163081     0.660755     0.144345    Uiso  ? C
   C439       1.0     0.176196     0.647796     0.144345    Uiso  ? C
   H276       1.0     0.436692     0.167895     0.631577    Uiso  ? H
   C440       1.0     0.141723     0.648712     0.144345    Uiso  ? C
   C441       1.0     0.142697     0.352215     0.144345    Uiso  ? C
   C442       1.0     0.163572     0.340516     0.144345    Uiso  ? C
   C443       1.0     0.172938     0.318818     0.144345    Uiso  ? C
   H277       1.0     0.615267     0.164054     0.311470    Uiso  ? H
   C444       1.0     0.191331     0.306866     0.144345    Uiso  ? C
   H278       1.0     0.592724     0.195929     0.289178    Uiso  ? H
   C445       1.0     0.203861     0.318891     0.144345    Uiso  ? C
   H279       1.0     0.560251     0.217193     0.310708    Uiso  ? H
   C446       1.0     0.197534     0.341513     0.144345    Uiso  ? C
   C447       1.0     0.176824     0.352898     0.144345    Uiso  ? C
   H280       1.0     0.566434     0.167883     0.369901    Uiso  ? H
   C448       1.0     0.211471     0.353429     0.144345    Uiso  ? C
   C449       1.0     0.865802     0.393947     0.144345    Uiso  ? C
   C450       1.0     0.840966     0.403173     0.144345    Uiso  ? C
   C451       1.0     0.826778     0.389306     0.144345    Uiso  ? C
   H281       1.0     0.686421     0.832898     0.374962    Uiso  ? H
   C452       1.0     0.803684     0.396492     0.144345    Uiso  ? C
   H282       1.0     0.696703     0.792165     0.385638    Uiso  ? H
   C453       1.0     0.793459     0.418135     0.144345    Uiso  ? C
   H283       1.0     0.677650     0.773425     0.423174    Uiso  ? H
   C454       1.0     0.807216     0.434444     0.144345    Uiso  ? C
   C455       1.0     0.831737     0.427089     0.144345    Uiso  ? C
   H284       1.0     0.642173     0.841942     0.440659    Uiso  ? H
   C456       1.0     0.794455     0.457657     0.144345    Uiso  ? C
   C457       1.0     0.753468     0.537280     0.144345    Uiso  ? C
   C458       1.0     0.744129     0.559784     0.144345    Uiso  ? C
   C459       1.0     0.721691     0.569705     0.144345    Uiso  ? C
   H285       1.0     0.618894     0.710566     0.563786    Uiso  ? H
   C460       1.0     0.710383     0.590029     0.144345    Uiso  ? C
   H286       1.0     0.600652     0.693632     0.598536    Uiso  ? H
   C461       1.0     0.720685     0.600287     0.144345    Uiso  ? C
   H287       1.0     0.562955     0.711312     0.617386    Uiso  ? H
   C462       1.0     0.742829     0.592867     0.144345    Uiso  ? C
   C463       1.0     0.754598     0.571713     0.144345    Uiso  ? C
   H288       1.0     0.566005     0.770636     0.566814    Uiso  ? H
   C464       1.0     0.752248     0.605851     0.144345    Uiso  ? C
   O217       1.0     0.639465     0.121664     0.594462    Uiso  ? O
   O218       1.0     0.653380     0.132627     0.630837    Uiso  ? O
   O219       1.0     0.594039     0.124392     0.637413    Uiso  ? O
   O220       1.0     0.629295     0.131248     0.655715    Uiso  ? O
   O221       1.0     0.605503     0.865831     0.626085    Uiso  ? O
   O222       1.0     0.625203     0.869824     0.661548    Uiso  ? O
   O223       1.0     0.625439     0.865142     0.604189    Uiso  ? O
   O224       1.0     0.661435     0.870315     0.623186    Uiso  ? O
   O225       1.0     0.600409     0.226336     0.467225    Uiso  ? O
   O226       1.0     0.625617     0.257890     0.471394    Uiso  ? O
   O227       1.0     0.593906     0.243504     0.522850    Uiso  ? O
   O228       1.0     0.630815     0.255361     0.535362    Uiso  ? O
   O229       1.0     0.635470     0.194708     0.525406    Uiso  ? O
   O230       1.0     0.651251     0.231013     0.535948    Uiso  ? O
   O231       1.0     0.625868     0.205420     0.467774    Uiso  ? O
   O232       1.0     0.659016     0.229234     0.470762    Uiso  ? O
   O233       1.0     0.469575     0.229474     0.605585    Uiso  ? O
   O234       1.0     0.473145     0.263767     0.628439    Uiso  ? O
   O235       1.0     0.469033     0.206354     0.626358    Uiso  ? O
   O236       1.0     0.476622     0.223534     0.662511    Uiso  ? O
   O237       1.0     0.524882     0.196271     0.637787    Uiso  ? O
   O238       1.0     0.536459     0.231339     0.654664    Uiso  ? O
   O239       1.0     0.525930     0.241478     0.596633    Uiso  ? O
   O240       1.0     0.536346     0.258839     0.631533    Uiso  ? O
   O241       1.0     0.601610     0.133144     0.374504    Uiso  ? O
   O242       1.0     0.626813     0.132435     0.342464    Uiso  ? O
   O243       1.0     0.625651     0.133769     0.400799    Uiso  ? O
   O244       1.0     0.660405     0.130196     0.379210    Uiso  ? O
   O245       1.0     0.641460     0.879993     0.408675    Uiso  ? O
   O246       1.0     0.655084     0.868677     0.372041    Uiso  ? O
   O247       1.0     0.598571     0.877159     0.365704    Uiso  ? O
   O248       1.0     0.633444     0.869483     0.346527    Uiso  ? O
   O249       1.0     0.640050     0.807064     0.475299    Uiso  ? O
   O250       1.0     0.652693     0.770399     0.462132    Uiso  ? O
   O251       1.0     0.621396     0.797443     0.532647    Uiso  ? O
   O252       1.0     0.657976     0.781498     0.521956    Uiso  ? O
   O253       1.0     0.604941     0.774730     0.531401    Uiso  ? O
   O254       1.0     0.622237     0.738701     0.524576    Uiso  ? O
   O255       1.0     0.592063     0.769161     0.471508    Uiso  ? O
   O256       1.0     0.627190     0.749601     0.462999    Uiso  ? O
   O257       1.0     0.478505     0.196524     0.361553    Uiso  ? O
   O258       1.0     0.464833     0.231587     0.347032    Uiso  ? O
   O259       1.0     0.476271     0.239395     0.407556    Uiso  ? O
   O260       1.0     0.464400     0.254249     0.371401    Uiso  ? O
   O261       1.0     0.531381     0.228804     0.399258    Uiso  ? O
   O262       1.0     0.527428     0.262291     0.377463    Uiso  ? O
   O263       1.0     0.535003     0.207503     0.377745    Uiso  ? O
   O264       1.0     0.528764     0.227510     0.341189    Uiso  ? O
   O265       1.0     0.581790     0.117953     0.605292    Uiso  ? O
   O266       1.0     0.605688     0.184417     0.520500    Uiso  ? O
   O267       1.0     0.515666     0.196082     0.581409    Uiso  ? O
   O268       1.0     0.585463     0.894418     0.415572    Uiso  ? O
   O269       1.0     0.577566     0.797637     0.479696    Uiso  ? O
   O270       1.0     0.495005     0.182647     0.414988    Uiso  ? O
   Zn49       1.0     0.615236     0.101530     0.615516    Uiso  ? Zn
   Zn50       1.0     0.654226     0.897805     0.654404    Uiso  ? Zn
   Zn51       1.0     0.614710     0.218171     0.502632    Uiso  ? Zn
   Zn52       1.0     0.653636     0.255535     0.501599    Uiso  ? Zn
   Zn53       1.0     0.505644     0.215336     0.613352    Uiso  ? Zn
   Zn54       1.0     0.501977     0.255202     0.655843    Uiso  ? Zn
   Zn55       1.0     0.613292     0.899117     0.391991    Uiso  ? Zn
   Zn56       1.0     0.654292     0.102842     0.349218    Uiso  ? Zn
   Zn57       1.0     0.612330     0.790064     0.495745    Uiso  ? Zn
   Zn58       1.0     0.649967     0.749322     0.497448    Uiso  ? Zn
   Zn59       1.0     0.498767     0.211967     0.390615    Uiso  ? Zn
   Zn60       1.0     0.498731     0.254607     0.349419    Uiso  ? Zn
   C465       1.0     0.868189     0.392288     0.144345    Uiso  ? C
   C466       1.0     0.844737     0.403698     0.144345    Uiso  ? C
   C467       1.0     0.837928     0.395878     0.144345    Uiso  ? C
   H289       1.0     0.309746     0.845277     0.381533    Uiso  ? H
   C468       1.0     0.817456     0.405946     0.144345    Uiso  ? C
   H290       1.0     0.290387     0.811260     0.400641    Uiso  ? H
   C469       1.0     0.803829     0.425807     0.144345    Uiso  ? C
   H291       1.0     0.308276     0.788174     0.435404    Uiso  ? H
   C470       1.0     0.809213     0.434217     0.144345    Uiso  ? C
   C471       1.0     0.830196     0.423099     0.144345    Uiso  ? C
   H292       1.0     0.370275     0.836105     0.432231    Uiso  ? H
   C472       1.0     0.797520     0.457739     0.144345    Uiso  ? C
   C473       1.0     0.869813     0.346904     0.144345    Uiso  ? C
   C474       1.0     0.846001     0.337617     0.144345    Uiso  ? C
   C475       1.0     0.834906     0.316306     0.144345    Uiso  ? C
   H293       1.0     0.378584     0.841009     0.311302    Uiso  ? H
   C476       1.0     0.815710     0.303862     0.144345    Uiso  ? C
   H294       1.0     0.401475     0.808403     0.287461    Uiso  ? H
   C477       1.0     0.804060     0.313976     0.144345    Uiso  ? C
   H295       1.0     0.434648     0.787091     0.306865    Uiso  ? H
   C478       1.0     0.813953     0.335120     0.144345    Uiso  ? C
   C479       1.0     0.836981     0.345526     0.144345    Uiso  ? C
   H296       1.0     0.439046     0.845811     0.360553    Uiso  ? H
   C480       1.0     0.800063     0.347140     0.144345    Uiso  ? C
   C481       1.0     0.141994     0.349844     0.144345    Uiso  ? C
   C482       1.0     0.164144     0.338141     0.144345    Uiso  ? C
   C483       1.0     0.177827     0.321132     0.144345    Uiso  ? C
   H297       1.0     0.376549     0.170819     0.314431    Uiso  ? H
   C484       1.0     0.200922     0.314187     0.144345    Uiso  ? C
   H298       1.0     0.391358     0.210428     0.300858    Uiso  ? H
   C485       1.0     0.210659     0.324061     0.144345    Uiso  ? C
   H299       1.0     0.428672     0.227943     0.320237    Uiso  ? H
   C486       1.0     0.196733     0.340456     0.144345    Uiso  ? C
   C487       1.0     0.174338     0.348322     0.144345    Uiso  ? C
   H300       1.0     0.437970     0.164483     0.365070    Uiso  ? H
   C488       1.0     0.209265     0.350590     0.144345    Uiso  ? C
   C489       1.0     0.143876     0.394208     0.144345    Uiso  ? C
   C490       1.0     0.165503     0.407690     0.144345    Uiso  ? C
   C491       1.0     0.176909     0.398318     0.144345    Uiso  ? C
   H301       1.0     0.311462     0.168672     0.382958    Uiso  ? H
   C492       1.0     0.197932     0.410300     0.144345    Uiso  ? C
   H302       1.0     0.294778     0.204852     0.403407    Uiso  ? H
   C493       1.0     0.208330     0.430738     0.144345    Uiso  ? C
   H303       1.0     0.313066     0.223673     0.439853    Uiso  ? H
   C494       1.0     0.198783     0.440091     0.144345    Uiso  ? C
   C495       1.0     0.176928     0.429238     0.144345    Uiso  ? C
   H304       1.0     0.369280     0.168875     0.437009    Uiso  ? H
   C496       1.0     0.209694     0.463834     0.144345    Uiso  ? C
   C497       1.0     0.751997     0.536529     0.144345    Uiso  ? C
   C498       1.0     0.743385     0.561046     0.144345    Uiso  ? C
   C499       1.0     0.730843     0.577307     0.144345    Uiso  ? C
   H305       1.0     0.370189     0.723380     0.573303    Uiso  ? H
   C500       1.0     0.725552     0.601923     0.144345    Uiso  ? C
   H306       1.0     0.381431     0.715067     0.615862    Uiso  ? H
   C501       1.0     0.731621     0.609137     0.144345    Uiso  ? C
   H307       1.0     0.425184     0.725721     0.628364    Uiso  ? H
   C502       1.0     0.743765     0.593552     0.144345    Uiso  ? C
   C503       1.0     0.749337     0.568980     0.144345    Uiso  ? C
   H308       1.0     0.439081     0.757402     0.559079    Uiso  ? H
   C504       1.0     0.750337     0.604158     0.144345    Uiso  ? C
   C505       1.0     0.758084     0.453499     0.144345    Uiso  ? C
   C506       1.0     0.748342     0.430604     0.144345    Uiso  ? C
   C507       1.0     0.727897     0.418067     0.144345    Uiso  ? C
   H309       1.0     0.378707     0.717087     0.427298    Uiso  ? H
   C508       1.0     0.719722     0.395321     0.144345    Uiso  ? C
   H310       1.0     0.396685     0.703314     0.387446    Uiso  ? H
   C509       1.0     0.731184     0.385378     0.144345    Uiso  ? C
   H311       1.0     0.430037     0.723640     0.369317    Uiso  ? H
   C510       1.0     0.750971     0.396448     0.144345    Uiso  ? C
   C511       1.0     0.758368     0.420227     0.144345    Uiso  ? C
   H312       1.0     0.434098     0.773887     0.429643    Uiso  ? H
   C512       1.0     0.761892     0.385294     0.144345    Uiso  ? C
   C513       1.0     0.797397     0.536404     0.144345    Uiso  ? C
   C514       1.0     0.808461     0.560698     0.144345    Uiso  ? C
   C515       1.0     0.792761     0.576109     0.144345    Uiso  ? C
   H313       1.0     0.330048     0.772687     0.571247    Uiso  ? H
   C516       1.0     0.801691     0.596772     0.144345    Uiso  ? C
   H314       1.0     0.308034     0.787976     0.607399    Uiso  ? H
   C517       1.0     0.825536     0.605032     0.144345    Uiso  ? C
   H315       1.0     0.315124     0.831042     0.622913    Uiso  ? H
   C518       1.0     0.841435     0.592530     0.144345    Uiso  ? C
   C519       1.0     0.832766     0.569139     0.144345    Uiso  ? C
   H316       1.0     0.362394     0.842740     0.559947    Uiso  ? H
   C520       1.0     0.865849     0.604761     0.144345    Uiso  ? C
   C521       1.0     0.753230     0.387745     0.144345    Uiso  ? C
   C522       1.0     0.743230     0.400907     0.144345    Uiso  ? C
   C523       1.0     0.723668     0.388765     0.144345    Uiso  ? C
   H317       1.0     0.566474     0.714523     0.371414    Uiso  ? H
   C524       1.0     0.717086     0.397730     0.144345    Uiso  ? C
   H318       1.0     0.606899     0.704070     0.388730    Uiso  ? H
   C525       1.0     0.726668     0.420128     0.144345    Uiso  ? C
   H319       1.0     0.622515     0.720035     0.427179    Uiso  ? H
   C526       1.0     0.745157     0.433337     0.144345    Uiso  ? C
   C527       1.0     0.752206     0.424442     0.144345    Uiso  ? C
   H320       1.0     0.560854     0.766164     0.434061    Uiso  ? H
   C528       1.0     0.755173     0.456400     0.144345    Uiso  ? C
   C529       1.0     0.798002     0.346063     0.144345    Uiso  ? C
   C530       1.0     0.809573     0.338842     0.144345    Uiso  ? C
   C531       1.0     0.797502     0.320371     0.144345    Uiso  ? C
   H321       1.0     0.575739     0.778447     0.315583    Uiso  ? H
   C532       1.0     0.809868     0.309300     0.144345    Uiso  ? C
   H322       1.0     0.611980     0.801132     0.296489    Uiso  ? H
   C533       1.0     0.831030     0.320437     0.144345    Uiso  ? C
   H323       1.0     0.626710     0.835895     0.315257    Uiso  ? H
   C534       1.0     0.842719     0.339872     0.144345    Uiso  ? C
   C535       1.0     0.831345     0.349639     0.144345    Uiso  ? C
   H324       1.0     0.564395     0.838890     0.364885    Uiso  ? H
   C536       1.0     0.865179     0.349698     0.144345    Uiso  ? C
   C537       1.0     0.863754     0.651264     0.144345    Uiso  ? C
   C538       1.0     0.840233     0.659069     0.144345    Uiso  ? C
   C539       1.0     0.826675     0.676345     0.144345    Uiso  ? C
   H325       1.0     0.374917     0.833559     0.685911    Uiso  ? H
   C540       1.0     0.802341     0.682107     0.144345    Uiso  ? C
   H326       1.0     0.386170     0.789866     0.693451    Uiso  ? H
   C541       1.0     0.790830     0.670799     0.144345    Uiso  ? C
   H327       1.0     0.423087     0.770057     0.675611    Uiso  ? H
   C542       1.0     0.804739     0.656309     0.144345    Uiso  ? C
   C543       1.0     0.829643     0.649421     0.144345    Uiso  ? C
   H328       1.0     0.437040     0.840328     0.638727    Uiso  ? H
   C544       1.0     0.793455     0.647545     0.144345    Uiso  ? C
   C545       1.0     0.144398     0.611061     0.144345    Uiso  ? C
   C546       1.0     0.167059     0.598912     0.144345    Uiso  ? C
   C547       1.0     0.180823     0.612233     0.144345    Uiso  ? C
   H329       1.0     0.320741     0.173368     0.629798    Uiso  ? H
   C548       1.0     0.203384     0.603561     0.144345    Uiso  ? C
   H330       1.0     0.304078     0.210116     0.614739    Uiso  ? H
   C549       1.0     0.213590     0.582281     0.144345    Uiso  ? C
   H331       1.0     0.320060     0.230544     0.577712    Uiso  ? H
   C550       1.0     0.200734     0.568447     0.144345    Uiso  ? C
   C551       1.0     0.177241     0.577272     0.144345    Uiso  ? C
   H332       1.0     0.365237     0.165476     0.567291    Uiso  ? H
   C552       1.0     0.210763     0.543997     0.144345    Uiso  ? C
   C553       1.0     0.248556     0.460896     0.144345    Uiso  ? C
   C554       1.0     0.260144     0.439177     0.144345    Uiso  ? C
   C555       1.0     0.280957     0.429392     0.144345    Uiso  ? C
   H333       1.0     0.379233     0.287542     0.437683    Uiso  ? H
   C556       1.0     0.292993     0.409414     0.144345    Uiso  ? C
   H334       1.0     0.396463     0.307101     0.402330    Uiso  ? H
   C557       1.0     0.282374     0.397126     0.144345    Uiso  ? C
   H335       1.0     0.433788     0.291551     0.382092    Uiso  ? H
   C558       1.0     0.261781     0.406254     0.144345    Uiso  ? C
   C559       1.0     0.249241     0.426818     0.144345    Uiso  ? C
   H336       1.0     0.435342     0.232469     0.436530    Uiso  ? H
   C560       1.0     0.251745     0.393581     0.144345    Uiso  ? C
   O271       1.0     0.364862     0.881737     0.405424    Uiso  ? O
   O272       1.0     0.350506     0.871116     0.370075    Uiso  ? O
   O273       1.0     0.408286     0.883063     0.360515    Uiso  ? O
   O274       1.0     0.372165     0.872630     0.346897    Uiso  ? O
   O275       1.0     0.397221     0.136680     0.373883    Uiso  ? O
   O276       1.0     0.377293     0.130133     0.338379    Uiso  ? O
   O277       1.0     0.377018     0.137906     0.398838    Uiso  ? O
   O278       1.0     0.343186     0.131317     0.378884    Uiso  ? O
   O279       1.0     0.407401     0.760135     0.520593    Uiso  ? O
   O280       1.0     0.370835     0.748168     0.532376    Uiso  ? O
   O281       1.0     0.396723     0.778500     0.463469    Uiso  ? O
   O282       1.0     0.374838     0.744061     0.465607    Uiso  ? O
   O283       1.0     0.373288     0.800432     0.466408    Uiso  ? O
   O284       1.0     0.340018     0.779533     0.468963    Uiso  ? O
   O285       1.0     0.367683     0.809868     0.523392    Uiso  ? O
   O286       1.0     0.349262     0.773416     0.532119    Uiso  ? O
   O287       1.0     0.522918     0.764651     0.401854    Uiso  ? O
   O288       1.0     0.532942     0.747862     0.365776    Uiso  ? O
   O289       1.0     0.529489     0.808855     0.362823    Uiso  ? O
   O290       1.0     0.535935     0.775146     0.340698    Uiso  ? O
   O291       1.0     0.470301     0.807228     0.368860    Uiso  ? O
   O292       1.0     0.471902     0.780861     0.337518    Uiso  ? O
   O293       1.0     0.468179     0.781878     0.394275    Uiso  ? O
   O294       1.0     0.469322     0.750824     0.368243    Uiso  ? O
   O295       1.0     0.407359     0.878324     0.640381    Uiso  ? O
   O296       1.0     0.370323     0.866615     0.653779    Uiso  ? O
   O297       1.0     0.363818     0.878692     0.594351    Uiso  ? O
   O298       1.0     0.346280     0.869002     0.629738    Uiso  ? O
   O299       1.0     0.375342     0.136216     0.608056    Uiso  ? O
   O300       1.0     0.340057     0.131651     0.627734    Uiso  ? O
   O301       1.0     0.401746     0.133850     0.627952    Uiso  ? O
   O302       1.0     0.379625     0.129798     0.660927    Uiso  ? O
   O303       1.0     0.365140     0.197087     0.530606    Uiso  ? O
   O304       1.0     0.349850     0.232733     0.540383    Uiso  ? O
   O305       1.0     0.375065     0.202327     0.471806    Uiso  ? O
   O306       1.0     0.341850     0.225877     0.476569    Uiso  ? O
   O307       1.0     0.400476     0.226155     0.470647    Uiso  ? O
   O308       1.0     0.374030     0.258898     0.471282    Uiso  ? O
   O309       1.0     0.408754     0.241250     0.526193    Uiso  ? O
   O310       1.0     0.373567     0.258971     0.536878    Uiso  ? O
   O311       1.0     0.531806     0.797961     0.623385    Uiso  ? O
   O312       1.0     0.527732     0.777210     0.656875    Uiso  ? O
   O313       1.0     0.531475     0.773504     0.602127    Uiso  ? O
   O314       1.0     0.528786     0.738547     0.624147    Uiso  ? O
   O315       1.0     0.474481     0.762379     0.591447    Uiso  ? O
   O316       1.0     0.465175     0.745701     0.628168    Uiso  ? O
   O317       1.0     0.473864     0.806763     0.636996    Uiso  ? O
   O318       1.0     0.464078     0.769256     0.649771    Uiso  ? O
   O319       1.0     0.419670     0.883411     0.403226    Uiso  ? O
   O320       1.0     0.425611     0.790687     0.510463    Uiso  ? O
   O321       1.0     0.510262     0.820319     0.414468    Uiso  ? O
   O322       1.0     0.397972     0.885607     0.581823    Uiso  ? O
   O323       1.0     0.399691     0.180453     0.519401    Uiso  ? O
   O324       1.0     0.485448     0.814001     0.581564    Uiso  ? O
   Zn61       1.0     0.388423     0.101173     0.386382    Uiso  ? Zn
   Zn62       1.0     0.347284     0.105214     0.348562    Uiso  ? Zn
   Zn63       1.0     0.389027     0.788362     0.501506    Uiso  ? Zn
   Zn64       1.0     0.348359     0.750011     0.497073    Uiso  ? Zn
   Zn65       1.0     0.502993     0.795466     0.386127    Uiso  ? Zn
   Zn66       1.0     0.500843     0.753649     0.341676    Uiso  ? Zn
   Zn67       1.0     0.387599     0.900000     0.616118    Uiso  ? Zn
   Zn68       1.0     0.349755     0.102819     0.654451    Uiso  ? Zn
   Zn69       1.0     0.388765     0.215232     0.506082    Uiso  ? Zn
   Zn70       1.0     0.348058     0.254705     0.504026    Uiso  ? Zn
   Zn71       1.0     0.495635     0.790500     0.608767    Uiso  ? Zn
   Zn72       1.0     0.499954     0.746884     0.651086    Uiso  ? Zn
   H337       1.0     0.437961     0.786439     0.499375    Uiso  ? H
   H338       1.0     0.429855     0.799322     0.524838    Uiso  ? H
   H339       1.0     0.590491     0.183255     0.530405    Uiso  ? H
   H340       1.0     0.605049     0.168480     0.511313    Uiso  ? H
   H341       1.0     0.510843     0.175320     0.417346    Uiso  ? H
   H342       1.0     0.481867     0.171227     0.412610    Uiso  ? H
   H343       1.0     0.569240     0.894114     0.407902    Uiso  ? H
   H344       1.0     0.589128     0.892607     0.432929    Uiso  ? H
   H345       1.0     0.494878     0.826541     0.571650    Uiso  ? H
   H346       1.0     0.468546     0.812953     0.576952    Uiso  ? H
   H347       1.0     0.567119     0.108718     0.606419    Uiso  ? H
   H348       1.0     0.581491     0.134183     0.598337    Uiso  ? H
   H349       1.0     0.564812     0.794841     0.490789    Uiso  ? H
   H350       1.0     0.575705     0.810181     0.466521    Uiso  ? H
   H351       1.0     0.408192     0.871147     0.581465    Uiso  ? H
   H352       1.0     0.395983     0.897587     0.568624    Uiso  ? H
   H353       1.0     0.502871     0.192352     0.570661    Uiso  ? H
   H354       1.0     0.532671     0.192297     0.577498    Uiso  ? H
   H355       1.0     0.410284     0.179010     0.533669    Uiso  ? H
   H356       1.0     0.392101     0.165515     0.514226    Uiso  ? H
   H357       1.0     0.496641     0.831312     0.415919    Uiso  ? H
   H358       1.0     0.523929     0.820819     0.424655    Uiso  ? H
   H359       1.0     0.430194     0.894296     0.412579    Uiso  ? H
   H360       1.0     0.423774     0.867446     0.398849    Uiso  ? H
   C561       1.0     0.396053     0.139857     0.144345    Uiso  ? C
   C562       1.0     0.405765     0.164373     0.144345    Uiso  ? C
   C563       1.0     0.391158     0.179325     0.144345    Uiso  ? C
   H361       1.0     0.672781     0.371725     0.173806    Uiso  ? H
   C564       1.0     0.398952     0.202329     0.144345    Uiso  ? C
   H362       1.0     0.686245     0.386673     0.215999    Uiso  ? H
   C565       1.0     0.422426     0.210351     0.144345    Uiso  ? C
   H363       1.0     0.675901     0.426677     0.229807    Uiso  ? H
   C566       1.0     0.437274     0.196968     0.144345    Uiso  ? C
   C567       1.0     0.428643     0.173184     0.144345    Uiso  ? C
   H364       1.0     0.633395     0.438642     0.163233    Uiso  ? H
   C568       1.0     0.462297     0.207210     0.144345    Uiso  ? C
   C569       1.0     0.351726     0.142454     0.144345    Uiso  ? C
   C570       1.0     0.342407     0.166107     0.144345    Uiso  ? C
   C571       1.0     0.328038     0.180844     0.144345    Uiso  ? C
   H365       1.0     0.629478     0.320860     0.175070    Uiso  ? H
   C572       1.0     0.319738     0.203850     0.144345    Uiso  ? C
   H366       1.0     0.615569     0.310512     0.217029    Uiso  ? H
   C573       1.0     0.327687     0.212169     0.144345    Uiso  ? C
   H367       1.0     0.576186     0.320677     0.232105    Uiso  ? H
   C574       1.0     0.342404     0.198699     0.144345    Uiso  ? C
   C575       1.0     0.349375     0.174566     0.144345    Uiso  ? C
   H368       1.0     0.561011     0.359835     0.163919    Uiso  ? H
   C576       1.0     0.348165     0.209210     0.144345    Uiso  ? C
   C577       1.0     0.355311     0.858970     0.144345    Uiso  ? C
   C578       1.0     0.344866     0.837161     0.144345    Uiso  ? C
   C579       1.0     0.324910     0.825389     0.144345    Uiso  ? C
   H369       1.0     0.621469     0.316753     0.834785    Uiso  ? H
   C580       1.0     0.314123     0.804569     0.144345    Uiso  ? C
   H370       1.0     0.602142     0.297405     0.797476    Uiso  ? H
   C581       1.0     0.325020     0.792834     0.144345    Uiso  ? C
   H371       1.0     0.565611     0.313276     0.779196    Uiso  ? H
   C582       1.0     0.345954     0.803028     0.144345    Uiso  ? C
   C583       1.0     0.356840     0.824983     0.144345    Uiso  ? C
   H372       1.0     0.565534     0.372749     0.832823    Uiso  ? H
   C584       1.0     0.356333     0.791235     0.144345    Uiso  ? C
   C585       1.0     0.395168     0.860641     0.144345    Uiso  ? C
   C586       1.0     0.407987     0.838073     0.144345    Uiso  ? C
   C587       1.0     0.397298     0.827631     0.144345    Uiso  ? C
   H373       1.0     0.687165     0.379646     0.834607    Uiso  ? H
   C588       1.0     0.405893     0.805759     0.144345    Uiso  ? C
   H374       1.0     0.705712     0.397637     0.802715    Uiso  ? H
   C589       1.0     0.427309     0.794717     0.144345    Uiso  ? C
   H375       1.0     0.689255     0.432746     0.779687    Uiso  ? H
   C590       1.0     0.439222     0.803711     0.144345    Uiso  ? C
   C591       1.0     0.429762     0.826210     0.144345    Uiso  ? C
   H376       1.0     0.632100     0.439491     0.834995    Uiso  ? H
   C592       1.0     0.462686     0.792231     0.144345    Uiso  ? C
   C593       1.0     0.540916     0.249467     0.144345    Uiso  ? C
   C594       1.0     0.563816     0.260127     0.144345    Uiso  ? C
   C595       1.0     0.573620     0.281568     0.144345    Uiso  ? C
   H377       1.0     0.616381     0.564460     0.292149    Uiso  ? H
   C596       1.0     0.593541     0.293058     0.144345    Uiso  ? C
   H378       1.0     0.598044     0.601260     0.310328    Uiso  ? H
   C597       1.0     0.606344     0.281321     0.144345    Uiso  ? C
   H379       1.0     0.563924     0.621304     0.290755    Uiso  ? H
   C598       1.0     0.597104     0.259788     0.144345    Uiso  ? C
   C599       1.0     0.577126     0.248334     0.144345    Uiso  ? C
   H380       1.0     0.566170     0.569894     0.231593    Uiso  ? H
   C600       1.0     0.611099     0.248763     0.144345    Uiso  ? C
   C601       1.0     0.461235     0.252155     0.144345    Uiso  ? C
   C602       1.0     0.436897     0.260436     0.144345    Uiso  ? C
   C603       1.0     0.422446     0.275889     0.144345    Uiso  ? C
   H381       1.0     0.626719     0.428947     0.283726    Uiso  ? H
   C604       1.0     0.398678     0.283754     0.144345    Uiso  ? C
   H382       1.0     0.614499     0.387128     0.297035    Uiso  ? H
   C605       1.0     0.388406     0.275608     0.144345    Uiso  ? C
   H383       1.0     0.575754     0.368564     0.282780    Uiso  ? H
   C606       1.0     0.402557     0.260634     0.144345    Uiso  ? C
   C607       1.0     0.427705     0.252676     0.144345    Uiso  ? C
   H384       1.0     0.559888     0.437622     0.242009    Uiso  ? H
   C608       1.0     0.391158     0.252531     0.144345    Uiso  ? C
   C609       1.0     0.538694     0.209184     0.144345    Uiso  ? C
   C610       1.0     0.559769     0.194070     0.144345    Uiso  ? C
   C611       1.0     0.565653     0.198152     0.144345    Uiso  ? C
   H385       1.0     0.693418     0.555820     0.213006    Uiso  ? H
   C612       1.0     0.586518     0.186447     0.144345    Uiso  ? C
   H386       1.0     0.710643     0.592401     0.191754    Uiso  ? H
   C613       1.0     0.599850     0.169275     0.144345    Uiso  ? C
   H387       1.0     0.688308     0.615010     0.165366    Uiso  ? H
   C614       1.0     0.593951     0.162742     0.144345    Uiso  ? C
   C615       1.0     0.573047     0.174978     0.144345    Uiso  ? C
   H388       1.0     0.626980     0.565726     0.169882    Uiso  ? H
   C616       1.0     0.608956     0.141260     0.144345    Uiso  ? C
   C617       1.0     0.394657     0.249620     0.144345    Uiso  ? C
   C618       1.0     0.408991     0.260371     0.144345    Uiso  ? C
   C619       1.0     0.398994     0.281034     0.144345    Uiso  ? C
   H389       1.0     0.434900     0.382139     0.291543    Uiso  ? H
   C620       1.0     0.408031     0.291167     0.144345    Uiso  ? C
   H390       1.0     0.399535     0.398428     0.309048    Uiso  ? H
   C621       1.0     0.431206     0.283531     0.144345    Uiso  ? C
   H391       1.0     0.382684     0.439243     0.295513    Uiso  ? H
   C622       1.0     0.441755     0.261955     0.144345    Uiso  ? C
   C623       1.0     0.429185     0.249204     0.144345    Uiso  ? C
   H392       1.0     0.435140     0.437679     0.234186    Uiso  ? H
   C624       1.0     0.463349     0.250967     0.144345    Uiso  ? C
   C625       1.0     0.355380     0.207243     0.144345    Uiso  ? C
   C626       1.0     0.344902     0.194958     0.144345    Uiso  ? C
   C627       1.0     0.321482     0.202473     0.144345    Uiso  ? C
   H393       1.0     0.436371     0.310117     0.219117    Uiso  ? H
   C628       1.0     0.311777     0.191867     0.144345    Uiso  ? C
   H394       1.0     0.400552     0.292054     0.199726    Uiso  ? H
   C629       1.0     0.323995     0.172439     0.144345    Uiso  ? C
   H395       1.0     0.377637     0.315301     0.168568    Uiso  ? H
   C630       1.0     0.346263     0.163503     0.144345    Uiso  ? C
   C631       1.0     0.356388     0.174675     0.144345    Uiso  ? C
   H396       1.0     0.434446     0.372242     0.169526    Uiso  ? H
   C632       1.0     0.356553     0.140335     0.144345    Uiso  ? C
   C633       1.0     0.652277     0.141083     0.144345    Uiso  ? C
   C634       1.0     0.663067     0.161733     0.144345    Uiso  ? C
   C635       1.0     0.687174     0.169042     0.144345    Uiso  ? C
   H397       1.0     0.610804     0.696530     0.161760    Uiso  ? H
   C636       1.0     0.697240     0.188103     0.144345    Uiso  ? C
   H398       1.0     0.587139     0.713634     0.196839    Uiso  ? H
   C637       1.0     0.684446     0.201181     0.144345    Uiso  ? C
   H399       1.0     0.554093     0.693127     0.215777    Uiso  ? H
   C638       1.0     0.660973     0.194383     0.144345    Uiso  ? C
   C639       1.0     0.649621     0.173209     0.144345    Uiso  ? C
   H400       1.0     0.566882     0.629329     0.167764    Uiso  ? H
   C640       1.0     0.649429     0.208303     0.144345    Uiso  ? C
   C641       1.0     0.610826     0.861000     0.144345    Uiso  ? C
   C642       1.0     0.600196     0.836287     0.144345    Uiso  ? C
   C643       1.0     0.612338     0.821075     0.144345    Uiso  ? C
   H401       1.0     0.677474     0.629870     0.826435    Uiso  ? H
   C644       1.0     0.602693     0.799791     0.144345    Uiso  ? C
   H402       1.0     0.697236     0.611487     0.791672    Uiso  ? H
   C645       1.0     0.579326     0.792836     0.144345    Uiso  ? C
   H403       1.0     0.686793     0.569809     0.778872    Uiso  ? H
   C646       1.0     0.566708     0.804418     0.144345    Uiso  ? C
   C647       1.0     0.576379     0.828062     0.144345    Uiso  ? C
   H404       1.0     0.635998     0.564794     0.839553    Uiso  ? H
   C648       1.0     0.542283     0.792907     0.144345    Uiso  ? C
   C649       1.0     0.464464     0.753737     0.144345    Uiso  ? C
   C650       1.0     0.441993     0.742491     0.144345    Uiso  ? C
   C651       1.0     0.430013     0.722590     0.144345    Uiso  ? C
   H405       1.0     0.620341     0.437514     0.715999    Uiso  ? H
   C652       1.0     0.409833     0.711460     0.144345    Uiso  ? C
   H406       1.0     0.602964     0.403224     0.695752    Uiso  ? H
   C653       1.0     0.400097     0.721529     0.144345    Uiso  ? C
   H407       1.0     0.564994     0.384019     0.714039    Uiso  ? H
   C654       1.0     0.409169     0.743103     0.144345    Uiso  ? C
   C655       1.0     0.430432     0.752815     0.144345    Uiso  ? C
   H408       1.0     0.563766     0.437221     0.770178    Uiso  ? H
   C656       1.0     0.397044     0.753143     0.144345    Uiso  ? C
   O325       1.0     0.635531     0.408126     0.125869    Uiso  ? O
   O326       1.0     0.652074     0.372407     0.135168    Uiso  ? O
   O327       1.0     0.594653     0.363702     0.130029    Uiso  ? O
   O328       1.0     0.630713     0.345713     0.137941    Uiso  ? O
   O329       1.0     0.600160     0.375865     0.866996    Uiso  ? O
   O330       1.0     0.621762     0.342044     0.871709    Uiso  ? O
   O331       1.0     0.626208     0.399575     0.869084    Uiso  ? O
   O332       1.0     0.659443     0.376994     0.872773    Uiso  ? O
   O333       1.0     0.598949     0.533174     0.229360    Uiso  ? O
   O334       1.0     0.620828     0.527930     0.262183    Uiso  ? O
   O335       1.0     0.591259     0.476888     0.243521    Uiso  ? O
   O336       1.0     0.627851     0.464852     0.254668    Uiso  ? O
   O337       1.0     0.631676     0.474719     0.197844    Uiso  ? O
   O338       1.0     0.652660     0.466197     0.232116    Uiso  ? O
   O339       1.0     0.624294     0.533352     0.209405    Uiso  ? O
   O340       1.0     0.660890     0.523773     0.223598    Uiso  ? O
   O341       1.0     0.467535     0.396728     0.228950    Uiso  ? O
   O342       1.0     0.470738     0.376871     0.263031    Uiso  ? O
   O343       1.0     0.465538     0.376402     0.204205    Uiso  ? O
   O344       1.0     0.470872     0.340925     0.223821    Uiso  ? O
   O345       1.0     0.524353     0.358959     0.197803    Uiso  ? O
   O346       1.0     0.535847     0.344673     0.233996    Uiso  ? O
   O347       1.0     0.524142     0.403347     0.242449    Uiso  ? O
   O348       1.0     0.535411     0.367292     0.256192    Uiso  ? O
   O349       1.0     0.601310     0.629421     0.136269    Uiso  ? O
   O350       1.0     0.622557     0.663731     0.131074    Uiso  ? O
   O351       1.0     0.621240     0.604691     0.137200    Uiso  ? O
   O352       1.0     0.656879     0.623599     0.130459    Uiso  ? O
   O353       1.0     0.640387     0.597890     0.879542    Uiso  ? O
   O354       1.0     0.652647     0.633215     0.867173    Uiso  ? O
   O355       1.0     0.593437     0.636267     0.876280    Uiso  ? O
   O356       1.0     0.628520     0.655188     0.866943    Uiso  ? O
   O357       1.0     0.635879     0.526889     0.806116    Uiso  ? O
   O358       1.0     0.653481     0.537492     0.771603    Uiso  ? O
   O359       1.0     0.625891     0.468716     0.798474    Uiso  ? O
   O360       1.0     0.659660     0.472847     0.776767    Uiso  ? O
   O361       1.0     0.601729     0.470850     0.776765    Uiso  ? O
   O362       1.0     0.624474     0.474021     0.744068    Uiso  ? O
   O363       1.0     0.592154     0.525028     0.762731    Uiso  ? O
   O364       1.0     0.627133     0.536380     0.744417    Uiso  ? O
   O365       1.0     0.474834     0.637439     0.197415    Uiso  ? O
   O366       1.0     0.464362     0.653894     0.232285    Uiso  ? O
   O367       1.0     0.470381     0.596785     0.236987    Uiso  ? O
   O368       1.0     0.463653     0.630709     0.257790    Uiso  ? O
   O369       1.0     0.533061     0.606453     0.228160    Uiso  ? O
   O370       1.0     0.527437     0.625250     0.263757    Uiso  ? O
   O371       1.0     0.534135     0.625545     0.205652    Uiso  ? O
   O372       1.0     0.526690     0.659916     0.226296    Uiso  ? O
   O373       1.0     0.576410     0.409601     0.111479    Uiso  ? O
   O374       1.0     0.598474     0.480410     0.187117    Uiso  ? O
   O375       1.0     0.510456     0.416408     0.189677    Uiso  ? O
   O376       1.0     0.584184     0.607069     0.882400    Uiso  ? O
   O377       1.0     0.586507     0.513898     0.817115    Uiso  ? O
   O378       1.0     0.487983     0.584385     0.185265    Uiso  ? O
   Zn73       1.0     0.609535     0.389408     0.104235    Uiso  ? Zn
   Zn74       1.0     0.650726     0.346880     0.101753    Uiso  ? Zn
   Zn75       1.0     0.611731     0.498152     0.219260    Uiso  ? Zn
   Zn76       1.0     0.651268     0.500026     0.256478    Uiso  ? Zn
   Zn77       1.0     0.502391     0.387835     0.213420    Uiso  ? Zn
   Zn78       1.0     0.499687     0.346756     0.255745    Uiso  ? Zn
   Zn79       1.0     0.614578     0.616459     0.100836    Uiso  ? Zn
   Zn80       1.0     0.650260     0.654768     0.102810    Uiso  ? Zn
   Zn81       1.0     0.610847     0.503894     0.788696    Uiso  ? Zn
   Zn82       1.0     0.653406     0.503913     0.748586    Uiso  ? Zn
   Zn83       1.0     0.496787     0.611172     0.212768    Uiso  ? Zn
   Zn84       1.0     0.498441     0.653132     0.256185    Uiso  ? Zn
   C657       1.0     0.608198     0.858201     0.144345    Uiso  ? C
   C658       1.0     0.595433     0.836748     0.144345    Uiso  ? C
   C659       1.0     0.603103     0.828837     0.144345    Uiso  ? C
   H409       1.0     0.309700     0.617401     0.838864    Uiso  ? H
   C660       1.0     0.591532     0.809773     0.144345    Uiso  ? C
   H410       1.0     0.285835     0.598730     0.806596    Uiso  ? H
   C661       1.0     0.570652     0.798287     0.144345    Uiso  ? C
   H411       1.0     0.305648     0.561104     0.784448    Uiso  ? H
   C662       1.0     0.561951     0.805072     0.144345    Uiso  ? C
   C663       1.0     0.573759     0.825283     0.144345    Uiso  ? C
   H412       1.0     0.366032     0.564636     0.834072    Uiso  ? H
   C664       1.0     0.540321     0.791323     0.144345    Uiso  ? C
   C665       1.0     0.650903     0.859639     0.144345    Uiso  ? C
   C666       1.0     0.662380     0.837935     0.144345    Uiso  ? C
   C667       1.0     0.686487     0.831573     0.144345    Uiso  ? C
   H413       1.0     0.382143     0.694993     0.840520    Uiso  ? H
   C668       1.0     0.698304     0.812445     0.144345    Uiso  ? C
   H414       1.0     0.403653     0.715446     0.808135    Uiso  ? H
   C669       1.0     0.686727     0.799166     0.144345    Uiso  ? C
   H415       1.0     0.436269     0.695620     0.785659    Uiso  ? H
   C670       1.0     0.663953     0.805640     0.144345    Uiso  ? C
   C671       1.0     0.651127     0.825391     0.144345    Uiso  ? C
   H416       1.0     0.430674     0.631017     0.831672    Uiso  ? H
   C672       1.0     0.653122     0.793068     0.144345    Uiso  ? C
   C673       1.0     0.648830     0.139216     0.144345    Uiso  ? C
   C674       1.0     0.656899     0.163492     0.144345    Uiso  ? C
   C675       1.0     0.670592     0.178929     0.144345    Uiso  ? C
   H417       1.0     0.370634     0.673993     0.173852    Uiso  ? H
   C676       1.0     0.676937     0.201958     0.144345    Uiso  ? C
   H418       1.0     0.383673     0.683766     0.215094    Uiso  ? H
   C677       1.0     0.669451     0.211702     0.144345    Uiso  ? C
   H419       1.0     0.424078     0.676005     0.230898    Uiso  ? H
   C678       1.0     0.657304     0.196630     0.144345    Uiso  ? C
   C679       1.0     0.649735     0.172397     0.144345    Uiso  ? C
   H420       1.0     0.439709     0.638796     0.161751    Uiso  ? H
   C680       1.0     0.651422     0.207934     0.144345    Uiso  ? C
   C681       1.0     0.609511     0.138567     0.144345    Uiso  ? C
   C682       1.0     0.598026     0.162600     0.144345    Uiso  ? C
   C683       1.0     0.611953     0.178796     0.144345    Uiso  ? C
   H421       1.0     0.314799     0.629527     0.174165    Uiso  ? H
   C684       1.0     0.603990     0.201849     0.144345    Uiso  ? C
   H422       1.0     0.305045     0.612764     0.215022    Uiso  ? H
   C685       1.0     0.582299     0.211053     0.144345    Uiso  ? C
   H423       1.0     0.322632     0.575697     0.230949    Uiso  ? H
   C686       1.0     0.566893     0.195894     0.144345    Uiso  ? C
   C687       1.0     0.574609     0.171128     0.144345    Uiso  ? C
   H424       1.0     0.355094     0.561132     0.159787    Uiso  ? H
   C688       1.0     0.541839     0.206531     0.144345    Uiso  ? C
   C689       1.0     0.463898     0.748128     0.144345    Uiso  ? C
   C690       1.0     0.440647     0.738472     0.144345    Uiso  ? C
   C691       1.0     0.426595     0.721249     0.144345    Uiso  ? C
   H425       1.0     0.373235     0.430788     0.715889    Uiso  ? H
   C692       1.0     0.405596     0.710146     0.144345    Uiso  ? C
   H426       1.0     0.393036     0.393916     0.698415    Uiso  ? H
   C693       1.0     0.396538     0.718740     0.144345    Uiso  ? C
   H427       1.0     0.433561     0.379991     0.711876    Uiso  ? H
   C694       1.0     0.408683     0.737672     0.144345    Uiso  ? C
   C695       1.0     0.432112     0.746646     0.144345    Uiso  ? C
   H428       1.0     0.438608     0.443286     0.761980    Uiso  ? H
   C696       1.0     0.396567     0.747172     0.144345    Uiso  ? C
   C697       1.0     0.544497     0.751568     0.144345    Uiso  ? C
   C698       1.0     0.568145     0.741905     0.144345    Uiso  ? C
   C699       1.0     0.578055     0.720311     0.144345    Uiso  ? C
   H429       1.0     0.379381     0.569071     0.711306    Uiso  ? H
   C700       1.0     0.600266     0.710390     0.144345    Uiso  ? C
   H430       1.0     0.396151     0.605168     0.693317    Uiso  ? H
   C701       1.0     0.611788     0.722156     0.144345    Uiso  ? C
   H431       1.0     0.430813     0.627358     0.716201    Uiso  ? H
   C702       1.0     0.601814     0.743310     0.144345    Uiso  ? C
   C703       1.0     0.581026     0.754125     0.144345    Uiso  ? C
   H432       1.0     0.430321     0.571462     0.770474    Uiso  ? H
   C704       1.0     0.613164     0.753786     0.144345    Uiso  ? C
   C705       1.0     0.464237     0.792372     0.144345    Uiso  ? C
   C706       1.0     0.439927     0.802706     0.144345    Uiso  ? C
   C707       1.0     0.424376     0.789223     0.144345    Uiso  ? C
   H433       1.0     0.316522     0.429260     0.773013    Uiso  ? H
   C708       1.0     0.403081     0.798894     0.144345    Uiso  ? C
   H434       1.0     0.302468     0.389547     0.789830    Uiso  ? H
   C709       1.0     0.395514     0.823125     0.144345    Uiso  ? C
   H435       1.0     0.313670     0.376201     0.830130    Uiso  ? H
   C710       1.0     0.408617     0.836060     0.144345    Uiso  ? C
   C711       1.0     0.431163     0.826756     0.144345    Uiso  ? C
   H436       1.0     0.358557     0.439974     0.839216    Uiso  ? H
   C712       1.0     0.397780     0.860385     0.144345    Uiso  ? C
   C713       1.0     0.605498     0.750242     0.144345    Uiso  ? C
   C714       1.0     0.592557     0.738837     0.144345    Uiso  ? C
   C715       1.0     0.601662     0.715955     0.144345    Uiso  ? C
   H437       1.0     0.558575     0.618736     0.710343    Uiso  ? H
   C716       1.0     0.589496     0.703371     0.144345    Uiso  ? C
   H438       1.0     0.590856     0.595347     0.688194    Uiso  ? H
   C717       1.0     0.571671     0.715003     0.144345    Uiso  ? C
   H439       1.0     0.615673     0.565977     0.707769    Uiso  ? H
   C718       1.0     0.562253     0.737609     0.144345    Uiso  ? C
   C719       1.0     0.571358     0.748432     0.144345    Uiso  ? C
   H440       1.0     0.560346     0.560416     0.765679    Uiso  ? H
   C720       1.0     0.540632     0.748324     0.144345    Uiso  ? C
   C721       1.0     0.649872     0.792341     0.144345    Uiso  ? C
   C722       1.0     0.656208     0.802315     0.144345    Uiso  ? C
   C723       1.0     0.670187     0.786465     0.144345    Uiso  ? C
   H441       1.0     0.574047     0.673841     0.770101    Uiso  ? H
   C724       1.0     0.678427     0.795633     0.144345    Uiso  ? C
   H442       1.0     0.612371     0.690855     0.785805    Uiso  ? H
   C725       1.0     0.672689     0.819776     0.144345    Uiso  ? C
   H443       1.0     0.628674     0.678146     0.826316    Uiso  ? H
   C726       1.0     0.659660     0.836397     0.144345    Uiso  ? C
   C727       1.0     0.650306     0.826981     0.144345    Uiso  ? C
   H444       1.0     0.561566     0.638815     0.840110    Uiso  ? H
   C728       1.0     0.651594     0.861211     0.144345    Uiso  ? C
   C729       1.0     0.353735     0.859743     0.144345    Uiso  ? C
   C730       1.0     0.343913     0.835523     0.144345    Uiso  ? C
   C731       1.0     0.325029     0.822321     0.144345    Uiso  ? C
   H445       1.0     0.370189     0.316510     0.827443    Uiso  ? H
   C732       1.0     0.316946     0.799938     0.144345    Uiso  ? C
   H446       1.0     0.386327     0.302340     0.790786    Uiso  ? H
   C733       1.0     0.323206     0.792019     0.144345    Uiso  ? C
   H447       1.0     0.429859     0.313235     0.776836    Uiso  ? H
   C734       1.0     0.340856     0.804523     0.144345    Uiso  ? C
   C735       1.0     0.352339     0.826067     0.144345    Uiso  ? C
   H448       1.0     0.433962     0.365840     0.836065    Uiso  ? H
   C736       1.0     0.351295     0.793378     0.144345    Uiso  ? C
   C737       1.0     0.394058     0.138923     0.144345    Uiso  ? C
   C738       1.0     0.403836     0.163650     0.144345    Uiso  ? C
   C739       1.0     0.392830     0.176107     0.144345    Uiso  ? C
   H449       1.0     0.312563     0.375798     0.170004    Uiso  ? H
   C740       1.0     0.403724     0.196817     0.144345    Uiso  ? C
   H450       1.0     0.295483     0.393411     0.205230    Uiso  ? H
   C741       1.0     0.424946     0.207315     0.144345    Uiso  ? C
   H451       1.0     0.314001     0.431520     0.225271    Uiso  ? H
   C742       1.0     0.437740     0.196163     0.144345    Uiso  ? C
   C743       1.0     0.426835     0.174261     0.144345    Uiso  ? C
   H452       1.0     0.365162     0.436049     0.167773    Uiso  ? H
   C744       1.0     0.461590     0.208355     0.144345    Uiso  ? C
   C745       1.0     0.542248     0.252454     0.144345    Uiso  ? C
   C746       1.0     0.567121     0.258203     0.144345    Uiso  ? C
   C747       1.0     0.583202     0.271225     0.144345    Uiso  ? C
   H453       1.0     0.365924     0.577825     0.278626    Uiso  ? H
   C748       1.0     0.605465     0.279184     0.144345    Uiso  ? C
   H454       1.0     0.381982     0.615831     0.292618    Uiso  ? H
   C749       1.0     0.613298     0.272628     0.144345    Uiso  ? C
   H455       1.0     0.422796     0.629256     0.280942    Uiso  ? H
   C750       1.0     0.598509     0.258570     0.144345    Uiso  ? C
   C751       1.0     0.575333     0.251174     0.144345    Uiso  ? C
   H456       1.0     0.432532     0.561163     0.240048    Uiso  ? H
   C752       1.0     0.609161     0.251156     0.144345    Uiso  ? C
   O379       1.0     0.374307     0.603405     0.863713    Uiso  ? O
   O380       1.0     0.339533     0.623495     0.872235    Uiso  ? O
   O381       1.0     0.396483     0.627648     0.866906    Uiso  ? O
   O382       1.0     0.372455     0.660462     0.871044    Uiso  ? O
   O383       1.0     0.407295     0.636001     0.124766    Uiso  ? O
   O384       1.0     0.370843     0.652374     0.135111    Uiso  ? O
   O385       1.0     0.357150     0.595429     0.124226    Uiso  ? O
   O386       1.0     0.344822     0.631641     0.136378    Uiso  ? O
   O387       1.0     0.404818     0.480179     0.759994    Uiso  ? O
   O388       1.0     0.368634     0.466433     0.746413    Uiso  ? O
   O389       1.0     0.395514     0.535994     0.774400    Uiso  ? O
   O390       1.0     0.375847     0.530885     0.739800    Uiso  ? O
   O391       1.0     0.370685     0.534860     0.795023    Uiso  ? O
   O392       1.0     0.335580     0.528785     0.775360    Uiso  ? O
   O393       1.0     0.363367     0.476080     0.807461    Uiso  ? O
   O394       1.0     0.343669     0.470709     0.771890    Uiso  ? O
   O395       1.0     0.521517     0.593673     0.766745    Uiso  ? O
   O396       1.0     0.530845     0.627838     0.746699    Uiso  ? O
   O397       1.0     0.525617     0.638472     0.808371    Uiso  ? O
   O398       1.0     0.534468     0.652403     0.770676    Uiso  ? O
   O399       1.0     0.466212     0.629826     0.799146    Uiso  ? O
   O400       1.0     0.473371     0.664290     0.777150    Uiso  ? O
   O401       1.0     0.464384     0.608866     0.776704    Uiso  ? O
   O402       1.0     0.468661     0.626939     0.741343    Uiso  ? O
   O403       1.0     0.404571     0.365651     0.875620    Uiso  ? O
   O404       1.0     0.368897     0.346873     0.866965    Uiso  ? O
   O405       1.0     0.362120     0.410218     0.874805    Uiso  ? O
   O406       1.0     0.343528     0.374473     0.867580    Uiso  ? O
   O407       1.0     0.370878     0.400734     0.131488    Uiso  ? O
   O408       1.0     0.340068     0.375034     0.129948    Uiso  ? O
   O409       1.0     0.398095     0.377318     0.133646    Uiso  ? O
   O410       1.0     0.375127     0.343559     0.130028    Uiso  ? O
   O411       1.0     0.374102     0.466362     0.209257    Uiso  ? O
   O412       1.0     0.337304     0.473229     0.224415    Uiso  ? O
   O413       1.0     0.363177     0.527014     0.195203    Uiso  ? O
   O414       1.0     0.344246     0.534008     0.229923    Uiso  ? O
   O415       1.0     0.402953     0.524792     0.244730    Uiso  ? O
   O416       1.0     0.366071     0.536195     0.256443    Uiso  ? O
   O417       1.0     0.394756     0.467029     0.228327    Uiso  ? O
   O418       1.0     0.378262     0.475032     0.266353    Uiso  ? O
   O419       1.0     0.530471     0.376560     0.798313    Uiso  ? O
   O420       1.0     0.528454     0.344074     0.774455    Uiso  ? O
   O421       1.0     0.532667     0.400287     0.776501    Uiso  ? O
   O422       1.0     0.528352     0.378813     0.742572    Uiso  ? O
   O423       1.0     0.475171     0.407791     0.762420    Uiso  ? O
   O424       1.0     0.464336     0.372335     0.745677    Uiso  ? O
   O425       1.0     0.471960     0.365043     0.806162    Uiso  ? O
   O426       1.0     0.465769     0.343361     0.772455    Uiso  ? O
   O427       1.0     0.392418     0.576840     0.110267    Uiso  ? O
   O428       1.0     0.403362     0.484642     0.819674    Uiso  ? O
   O429       1.0     0.503004     0.589357     0.822859    Uiso  ? O
   O430       1.0     0.411630     0.423783     0.892271    Uiso  ? O
   O431       1.0     0.393896     0.517466     0.183329    Uiso  ? O
   O432       1.0     0.480374     0.399676     0.820222    Uiso  ? O
   Zn85       1.0     0.383702     0.612956     0.101661    Uiso  ? Zn
   Zn86       1.0     0.345792     0.651987     0.101214    Uiso  ? Zn
   Zn87       1.0     0.386604     0.499249     0.786269    Uiso  ? Zn
   Zn88       1.0     0.346280     0.501020     0.746377    Uiso  ? Zn
   Zn89       1.0     0.501473     0.612986     0.792220    Uiso  ? Zn
   Zn90       1.0     0.499366     0.653264     0.747789    Uiso  ? Zn
   Zn91       1.0     0.388885     0.392748     0.898038    Uiso  ? Zn
   Zn92       1.0     0.346355     0.348783     0.100540    Uiso  ? Zn
   Zn93       1.0     0.385269     0.504363     0.218135    Uiso  ? Zn
   Zn94       1.0     0.346175     0.500822     0.255963    Uiso  ? Zn
   Zn95       1.0     0.495926     0.388970     0.788014    Uiso  ? Zn
   Zn96       1.0     0.499555     0.348752     0.748210    Uiso  ? Zn
   H457       1.0     0.397395     0.490123     0.835395    Uiso  ? H
   H458       1.0     0.417467     0.473581     0.818390    Uiso  ? H
   H459       1.0     0.585435     0.469031     0.188762    Uiso  ? H
   H460       1.0     0.597557     0.492330     0.173325    Uiso  ? H
   H461       1.0     0.475675     0.572160     0.184359    Uiso  ? H
   H462       1.0     0.498639     0.585525     0.172241    Uiso  ? H
   H463       1.0     0.569440     0.605483     0.891678    Uiso  ? H
   H464       1.0     0.583708     0.597316     0.867509    Uiso  ? H
   H465       1.0     0.487456     0.397062     0.835629    Uiso  ? H
   H466       1.0     0.464270     0.407446     0.819469    Uiso  ? H
   H467       1.0     0.579713     0.425206     0.118876    Uiso  ? H
   H468       1.0     0.559923     0.403182     0.111402    Uiso  ? H
   H469       1.0     0.584063     0.531141     0.818914    Uiso  ? H
   H470       1.0     0.574889     0.501920     0.820852    Uiso  ? H
   H471       1.0     0.427375     0.418386     0.885752    Uiso  ? H
   H472       1.0     0.410803     0.437782     0.103072    Uiso  ? H
   H473       1.0     0.499026     0.429174     0.192192    Uiso  ? H
   H474       1.0     0.523067     0.418648     0.177042    Uiso  ? H
   H475       1.0     0.403911     0.532160     0.182872    Uiso  ? H
   H476       1.0     0.393217     0.506860     0.168706    Uiso  ? H
   H477       1.0     0.512275     0.595704     0.837357    Uiso  ? H
   H478       1.0     0.492295     0.575175     0.823838    Uiso  ? H
   H479       1.0     0.400718     0.573537     0.125502    Uiso  ? H
   H480       1.0     0.394215     0.565283     0.896391    Uiso  ? H
   N1         1.0     0.101295     0.681051     0.319179    Uiso  ? N
   C753       1.0     0.125751     0.688207     0.310280    Uiso  ? C
   C754       1.0     0.126459     0.708012     0.290198    Uiso  ? C
   N2         1.0     0.101721     0.717584     0.284103    Uiso  ? N
   C755       1.0     0.886221     0.695182     0.276697    Uiso  ? C
   C756       1.0     0.886329     0.673411     0.297075    Uiso  ? C
   C757       1.0     0.887176     0.703966     0.327897    Uiso  ? C
   C758       1.0     0.888262     0.725353     0.308207    Uiso  ? C
   H481       1.0     0.142601     0.677932     0.312221    Uiso  ? H
   H482       1.0     0.134753     0.703224     0.273296    Uiso  ? H
   H483       1.0     0.894344     0.688161     0.259100    Uiso  ? H
   H484       1.0     0.866932     0.668696     0.300749    Uiso  ? H
   H485       1.0     0.892752     0.708619     0.346516    Uiso  ? H
   H486       1.0     0.868363     0.730485     0.305068    Uiso  ? H
   H487       1.0     0.137579     0.723671     0.297598    Uiso  ? H
   H488       1.0     0.866685     0.699989     0.270121    Uiso  ? H
   H489       1.0     0.892867     0.656457     0.288774    Uiso  ? H
   H490       1.0     0.867727     0.699802     0.332229    Uiso  ? H
   H491       1.0     0.897835     0.741612     0.315998    Uiso  ? H
   N3         1.0     0.101091     0.282460     0.720758    Uiso  ? N
   C759       1.0     0.897846     0.275492     0.694988    Uiso  ? C
   C760       1.0     0.897525     0.295110     0.674851    Uiso  ? C
   N4         1.0     0.897751     0.319547     0.686402    Uiso  ? N
   C761       1.0     0.875835     0.320251     0.703305    Uiso  ? C
   C762       1.0     0.876020     0.297669     0.722193    Uiso  ? C
   C763       1.0     0.121944     0.300051     0.721700    Uiso  ? C
   C764       1.0     0.121502     0.322242     0.702143    Uiso  ? C
   H492       1.0     0.105259     0.256898     0.688959    Uiso  ? H
   H493       1.0     0.882382     0.291478     0.660681    Uiso  ? H
   H494       1.0     0.858211     0.321221     0.692753    Uiso  ? H
   H495       1.0     0.873433     0.304380     0.741191    Uiso  ? H
   H496       1.0     0.139328     0.289392     0.722762    Uiso  ? H
   H497       1.0     0.121622     0.340126     0.711579    Uiso  ? H
   H498       1.0     0.116638     0.292706     0.664387    Uiso  ? H
   H499       1.0     0.875769     0.337021     0.713927    Uiso  ? H
   H500       1.0     0.859925     0.284519     0.719319    Uiso  ? H
   H501       1.0     0.123290     0.310124     0.738714    Uiso  ? H
   H502       1.0     0.139653     0.322747     0.692508    Uiso  ? H
   N5         1.0     0.103006     0.681343     0.682475    Uiso  ? N
   C765       1.0     0.890799     0.673900     0.705409    Uiso  ? C
   C766       1.0     0.891867     0.692187     0.726494    Uiso  ? C
   N6         1.0     0.104341     0.716503     0.718131    Uiso  ? N
   C767       1.0     0.129535     0.710331     0.708456    Uiso  ? C
   C768       1.0     0.128708     0.689271     0.689133    Uiso  ? C
   C769       1.0     0.887806     0.703228     0.675528    Uiso  ? C
   C770       1.0     0.888013     0.724525     0.696582    Uiso  ? C
   H503       1.0     0.888209     0.654050     0.710185    Uiso  ? H
   H504       1.0     0.102821     0.685144     0.742957    Uiso  ? H
   H505       1.0     0.141502     0.705440     0.724975    Uiso  ? H
   H506       1.0     0.138433     0.694955     0.671815    Uiso  ? H
   H507       1.0     0.868141     0.698271     0.671498    Uiso  ? H
   H508       1.0     0.895983     0.741782     0.687897    Uiso  ? H
   H509       1.0     0.872057     0.696039     0.731700    Uiso  ? H
   H510       1.0     0.138017     0.727216     0.700181    Uiso  ? H
   H511       1.0     0.138953     0.672429     0.695986    Uiso  ? H
   H512       1.0     0.895890     0.712502     0.659670    Uiso  ? H
   H513       1.0     0.869137     0.728338     0.701266    Uiso  ? H
   N7         1.0     0.898060     0.318295     0.320430    Uiso  ? N
   C771       1.0     0.123383     0.308091     0.315752    Uiso  ? C
   C772       1.0     0.125412     0.288956     0.294771    Uiso  ? C
   N8         1.0     0.898141     0.284041     0.284797    Uiso  ? N
   C773       1.0     0.881442     0.276839     0.305969    Uiso  ? C
   C774       1.0     0.881251     0.297720     0.326413    Uiso  ? C
   C775       1.0     0.889412     0.328419     0.296129    Uiso  ? C
   C776       1.0     0.888058     0.308030     0.275742    Uiso  ? C
   H514       1.0     0.138325     0.313602     0.327849    Uiso  ? H
   H515       1.0     0.134375     0.272248     0.302069    Uiso  ? H
   H516       1.0     0.884701     0.258360     0.314309    Uiso  ? H
   H517       1.0     0.861156     0.305438     0.327739    Uiso  ? H
   H518       1.0     0.103923     0.343898     0.289795    Uiso  ? H
   H519       1.0     0.869141     0.306993     0.267708    Uiso  ? H
   H520       1.0     0.137559     0.295889     0.279734    Uiso  ? H
   H521       1.0     0.862076     0.275533     0.299364    Uiso  ? H
   H522       1.0     0.884926     0.291606     0.346056    Uiso  ? H
   H523       1.0     0.870931     0.337990     0.298925    Uiso  ? H
   H524       1.0     0.897278     0.314375     0.259388    Uiso  ? H
   N9         1.0     0.682325     0.896487     0.684777    Uiso  ? N
   C777       1.0     0.687632     0.120001     0.694074    Uiso  ? C
   C778       1.0     0.706628     0.122305     0.713902    Uiso  ? C
   N10        1.0     0.717302     0.897324     0.719929    Uiso  ? N
   C779       1.0     0.695492     0.883120     0.727752    Uiso  ? C
   C780       1.0     0.675150     0.881683     0.706739    Uiso  ? C
   C781       1.0     0.706025     0.886497     0.675508    Uiso  ? C
   C782       1.0     0.727144     0.887822     0.696673    Uiso  ? C
   H525       1.0     0.676584     0.137004     0.689744    Uiso  ? H
   H526       1.0     0.697925     0.131489     0.730117    Uiso  ? H
   H527       1.0     0.687492     0.890925     0.745376    Uiso  ? H
   H528       1.0     0.672380     0.862757     0.700412    Uiso  ? H
   H529       1.0     0.713481     0.896932     0.660297    Uiso  ? H
   H530       1.0     0.736316     0.869826     0.699634    Uiso  ? H
   H531       1.0     0.721255     0.134421     0.708410    Uiso  ? H
   H532       1.0     0.701057     0.863621     0.731458    Uiso  ? H
   H533       1.0     0.656459     0.888025     0.713012    Uiso  ? H
   H534       1.0     0.703900     0.867390     0.669941    Uiso  ? H
   H535       1.0     0.742880     0.899983     0.690145    Uiso  ? H
   N11        1.0     0.682757     0.103625     0.318336    Uiso  ? N
   C783       1.0     0.704387     0.888575     0.324342    Uiso  ? C
   C784       1.0     0.727177     0.887859     0.306763    Uiso  ? C
   N12        1.0     0.719645     0.102042     0.285463    Uiso  ? N
   C785       1.0     0.696366     0.892909     0.275177    Uiso  ? C
   C786       1.0     0.675034     0.895065     0.294552    Uiso  ? C
   C787       1.0     0.692609     0.128623     0.313616    Uiso  ? C
   C788       1.0     0.713373     0.127790     0.293121    Uiso  ? C
   H536       1.0     0.705708     0.878943     0.341568    Uiso  ? H
   H537       1.0     0.731510     0.868370     0.300276    Uiso  ? H
   H538       1.0     0.698799     0.873118     0.269636    Uiso  ? H
   H539       1.0     0.660559     0.107069     0.286319    Uiso  ? H
   H540       1.0     0.698941     0.136260     0.331271    Uiso  ? H
   H541       1.0     0.705485     0.139851     0.278035    Uiso  ? H
   H542       1.0     0.743072     0.893693     0.315882    Uiso  ? H
   H543       1.0     0.690343     0.102839     0.258115    Uiso  ? H
   H544       1.0     0.666952     0.876241     0.298158    Uiso  ? H
   H545       1.0     0.677011     0.140634     0.308247    Uiso  ? H
   H546       1.0     0.731286     0.133995     0.301287    Uiso  ? H
   N13        1.0     0.282684     0.101855     0.284348    Uiso  ? N
   C789       1.0     0.274554     0.109997     0.307862    Uiso  ? C
   C790       1.0     0.294102     0.112149     0.328331    Uiso  ? C
   N14        1.0     0.318360     0.103787     0.318873    Uiso  ? N
   C791       1.0     0.315635     0.879498     0.309038    Uiso  ? C
   C792       1.0     0.295818     0.878251     0.288250    Uiso  ? C
   C793       1.0     0.303078     0.119757     0.277981    Uiso  ? C
   C794       1.0     0.323612     0.119330     0.297776    Uiso  ? C
   H547       1.0     0.255555     0.113932     0.310100    Uiso  ? H
   H548       1.0     0.288823     0.102412     0.345772    Uiso  ? H
   H549       1.0     0.308403     0.868192     0.322753    Uiso  ? H
   H550       1.0     0.304390     0.871335     0.271853    Uiso  ? H
   H551       1.0     0.295620     0.139125     0.276242    Uiso  ? H
   H552       1.0     0.342874     0.115382     0.290928    Uiso  ? H
   H553       1.0     0.294190     0.131895     0.332755    Uiso  ? H
   H554       1.0     0.332955     0.870304     0.304437    Uiso  ? H
   H555       1.0     0.280964     0.865312     0.293685    Uiso  ? H
   H556       1.0     0.311039     0.114328     0.259446    Uiso  ? H
   H557       1.0     0.325628     0.138099     0.302788    Uiso  ? H
   N15        1.0     0.318469     0.101501     0.684783    Uiso  ? N
   C795       1.0     0.295777     0.895521     0.675629    Uiso  ? C
   C796       1.0     0.275859     0.891773     0.694301    Uiso  ? C
   N16        1.0     0.282159     0.100930     0.718917    Uiso  ? N
   C797       1.0     0.304393     0.885186     0.725778    Uiso  ? C
   C798       1.0     0.326567     0.885994     0.705554    Uiso  ? C
   C799       1.0     0.314365     0.126438     0.696741    Uiso  ? C
   C800       1.0     0.292655     0.125861     0.715402    Uiso  ? C
   H558       1.0     0.293370     0.893960     0.656074    Uiso  ? H
   H559       1.0     0.271641     0.871879     0.694611    Uiso  ? H
   H560       1.0     0.297131     0.865792     0.731170    Uiso  ? H
   H561       1.0     0.342801     0.893567     0.715611    Uiso  ? H
   H562       1.0     0.313560     0.140874     0.682815    Uiso  ? H
   H563       1.0     0.299527     0.133850     0.733360    Uiso  ? H
   H564       1.0     0.257953     0.899309     0.687981    Uiso  ? H
   H565       1.0     0.314292     0.890841     0.743759    Uiso  ? H
   H566       1.0     0.331471     0.868379     0.700837    Uiso  ? H
   H567       1.0     0.331108     0.130858     0.707049    Uiso  ? H
   H568       1.0     0.278475     0.138532     0.707205    Uiso  ? H
   N17        1.0     0.681728     0.317409     0.100863    Uiso  ? N
   C801       1.0     0.675040     0.295833     0.114656    Uiso  ? C
   C802       1.0     0.693114     0.273223     0.113579    Uiso  ? C
   N18        1.0     0.715785     0.281986     0.899438    Uiso  ? N
   C803       1.0     0.707749     0.288884     0.874508    Uiso  ? C
   C804       1.0     0.687313     0.309659     0.874853    Uiso  ? C
   C805       1.0     0.705998     0.325034     0.111485    Uiso  ? C
   C806       1.0     0.725291     0.303317     0.111624    Uiso  ? C
   H569       1.0     0.657362     0.295009     0.123389    Uiso  ? H
   H570       1.0     0.685549     0.257548     0.103254    Uiso  ? H
   H571       1.0     0.702151     0.272169     0.864838    Uiso  ? H
   H572       1.0     0.691973     0.326125     0.863024    Uiso  ? H
   H573       1.0     0.702451     0.330119     0.131260    Uiso  ? H
   H574       1.0     0.742862     0.309081     0.101824    Uiso  ? H
   H575       1.0     0.694959     0.267290     0.133246    Uiso  ? H
   H576       1.0     0.723204     0.296687     0.862755    Uiso  ? H
   H577       1.0     0.669813     0.302038     0.866067    Uiso  ? H
   H578       1.0     0.712233     0.341376     0.102255    Uiso  ? H
   H579       1.0     0.731669     0.299602     0.130949    Uiso  ? H
   N19        1.0     0.716531     0.716741     0.104518    Uiso  ? N
   C807       1.0     0.714311     0.703275     0.881425    Uiso  ? C
   C808       1.0     0.694483     0.682412     0.882013    Uiso  ? C
   N20        1.0     0.679273     0.682191     0.105837    Uiso  ? N
   C809       1.0     0.697917     0.677488     0.125267    Uiso  ? C
   C810       1.0     0.718645     0.698042     0.124426    Uiso  ? C
   C811       1.0     0.691940     0.727688     0.107785    Uiso  ? C
   C812       1.0     0.670458     0.708417     0.107049    Uiso  ? C
   H580       1.0     0.723647     0.708078     0.864303    Uiso  ? H
   H581       1.0     0.704501     0.665232     0.878284    Uiso  ? H
   H582       1.0     0.707036     0.660093     0.121668    Uiso  ? H
   H583       1.0     0.720942     0.706029     0.142392    Uiso  ? H
   H584       1.0     0.688139     0.743726     0.894272    Uiso  ? H
   H585       1.0     0.658718     0.711394     0.124170    Uiso  ? H
   H586       1.0     0.682374     0.685875     0.865937    Uiso  ? H
   H587       1.0     0.689282     0.675882     0.143389    Uiso  ? H
   H588       1.0     0.736664     0.687714     0.123377    Uiso  ? H
   H589       1.0     0.694371     0.737390     0.126461    Uiso  ? H
   H590       1.0     0.659694     0.713596     0.890035    Uiso  ? H
   N21        1.0     0.281772     0.717470     0.101058    Uiso  ? N
   C813       1.0     0.302814     0.722334     0.884019    Uiso  ? C
   C814       1.0     0.323018     0.702506     0.882896    Uiso  ? C
   N22        1.0     0.316660     0.680705     0.100792    Uiso  ? N
   C815       1.0     0.312141     0.691139     0.125748    Uiso  ? C
   C816       1.0     0.293560     0.713795     0.125078    Uiso  ? C
   C817       1.0     0.271767     0.693667     0.892605    Uiso  ? C
   C818       1.0     0.292627     0.672429     0.892502    Uiso  ? C
   H591       1.0     0.306861     0.739910     0.878302    Uiso  ? H
   H592       1.0     0.340757     0.710760     0.889905    Uiso  ? H
   H593       1.0     0.330253     0.696690     0.133106    Uiso  ? H
   H594       1.0     0.279067     0.711235     0.138683    Uiso  ? H
   H595       1.0     0.262436     0.693774     0.874470    Uiso  ? H
   H596       1.0     0.286403     0.654592     0.102263    Uiso  ? H
   H597       1.0     0.325750     0.696573     0.864858    Uiso  ? H
   H598       1.0     0.304573     0.676955     0.138151    Uiso  ? H
   H599       1.0     0.303297     0.730672     0.128982    Uiso  ? H
   H600       1.0     0.258509     0.687467     0.108174    Uiso  ? H
   H601       1.0     0.293959     0.664235     0.873627    Uiso  ? H
   N23        1.0     0.283035     0.282248     0.102200    Uiso  ? N
   C819       1.0     0.303007     0.279570     0.883605    Uiso  ? C
   C820       1.0     0.322711     0.299653     0.882777    Uiso  ? C
   N24        1.0     0.317166     0.319076     0.101589    Uiso  ? N
   C821       1.0     0.291795     0.328795     0.895054    Uiso  ? C
   C822       1.0     0.271724     0.306309     0.895734    Uiso  ? C
   C823       1.0     0.295621     0.285261     0.125757    Uiso  ? C
   C824       1.0     0.315080     0.306847     0.125395    Uiso  ? C
   H602       1.0     0.303643     0.263335     0.871123    Uiso  ? H
   H603       1.0     0.325674     0.305221     0.863255    Uiso  ? H
   H604       1.0     0.291719     0.336942     0.875944    Uiso  ? H
   H605       1.0     0.257334     0.309590     0.110011    Uiso  ? H
   H606       1.0     0.305825     0.269034     0.130966    Uiso  ? H
   H607       1.0     0.309827     0.322058     0.139162    Uiso  ? H
   H608       1.0     0.339952     0.292221     0.889733    Uiso  ? H
   H609       1.0     0.285303     0.341881     0.109861    Uiso  ? H
   H610       1.0     0.261764     0.304264     0.877745    Uiso  ? H
   H611       1.0     0.282212     0.287204     0.140217    Uiso  ? H
   H612       1.0     0.331979     0.301162     0.134219    Uiso  ? H
   N25        1.0     0.282964     0.317600     0.502627    Uiso  ? N
   C825       1.0     0.273177     0.292831     0.504827    Uiso  ? C
   C826       1.0     0.292660     0.271463     0.505884    Uiso  ? C
   N26        1.0     0.317847     0.281943     0.502786    Uiso  ? N
   C827       1.0     0.317692     0.297062     0.479434    Uiso  ? C
   C828       1.0     0.296648     0.317803     0.479271    Uiso  ? C
   C829       1.0     0.299873     0.319619     0.523231    Uiso  ? C
   C830       1.0     0.320507     0.299675     0.523107    Uiso  ? C
   H613       1.0     0.256945     0.289434     0.516584    Uiso  ? H
   H614       1.0     0.288922     0.259323     0.489577    Uiso  ? H
   H615       1.0     0.317292     0.285034     0.463087    Uiso  ? H
   H616       1.0     0.304763     0.336124     0.475688    Uiso  ? H
   H617       1.0     0.288787     0.319636     0.540995    Uiso  ? H
   H618       1.0     0.338364     0.308947     0.521225    Uiso  ? H
   H619       1.0     0.290183     0.260978     0.523594    Uiso  ? H
   H620       1.0     0.335001     0.306623     0.478119    Uiso  ? H
   H621       1.0     0.284316     0.314679     0.463339    Uiso  ? H
   H622       1.0     0.308971     0.338065     0.523429    Uiso  ? H
   H623       1.0     0.322023     0.290661     0.541443    Uiso  ? H
   N27        1.0     0.320358     0.719789     0.497600    Uiso  ? N
   C831       1.0     0.300141     0.724090     0.515505    Uiso  ? C
   C832       1.0     0.279598     0.704556     0.518082    Uiso  ? C
   N28        1.0     0.284075     0.685748     0.498842    Uiso  ? N
   C833       1.0     0.286567     0.698053     0.474286    Uiso  ? C
   C834       1.0     0.308452     0.718113     0.474228    Uiso  ? C
   C835       1.0     0.329388     0.694680     0.504013    Uiso  ? C
   C836       1.0     0.308733     0.674739     0.504457    Uiso  ? C
   H624       1.0     0.301266     0.738529     0.530168    Uiso  ? H
   H625       1.0     0.261750     0.711747     0.514211    Uiso  ? H
   H626       1.0     0.269353     0.707879     0.470436    Uiso  ? H
   H627       1.0     0.320932     0.710685     0.459978    Uiso  ? H
   H628       1.0     0.338784     0.696021     0.522925    Uiso  ? H
   H629       1.0     0.313689     0.660537     0.491383    Uiso  ? H
   H630       1.0     0.280419     0.695842     0.536703    Uiso  ? H
   H631       1.0     0.288730     0.684089     0.458040    Uiso  ? H
   H632       1.0     0.301958     0.736992     0.466946    Uiso  ? H
   H633       1.0     0.342028     0.687686     0.490460    Uiso  ? H
   H634       1.0     0.308209     0.665574     0.522640    Uiso  ? H
   N29        1.0     0.680621     0.720952     0.500288    Uiso  ? N
   C837       1.0     0.694719     0.716642     0.477098    Uiso  ? C
   C838       1.0     0.714113     0.695611     0.476580    Uiso  ? C
   N30        1.0     0.717742     0.685191     0.501385    Uiso  ? N
   C839       1.0     0.722429     0.707205     0.518232    Uiso  ? C
   C840       1.0     0.700431     0.726538     0.518571    Uiso  ? C
   C841       1.0     0.672191     0.695981     0.507888    Uiso  ? C
   C842       1.0     0.693853     0.675349     0.508401    Uiso  ? C
   H635       1.0     0.690324     0.725376     0.461108    Uiso  ? H
   H636       1.0     0.733043     0.702423     0.471354    Uiso  ? H
   H637       1.0     0.740277     0.714532     0.512810    Uiso  ? H
   H638       1.0     0.693330     0.728417     0.536721    Uiso  ? H
   H639       1.0     0.654746     0.691088     0.498058    Uiso  ? H
   H640       1.0     0.695562     0.668447     0.527164    Uiso  ? H
   H641       1.0     0.710046     0.680176     0.462039    Uiso  ? H
   H642       1.0     0.726091     0.701123     0.537049    Uiso  ? H
   H643       1.0     0.707088     0.745171     0.512328    Uiso  ? H
   H644       1.0     0.665844     0.696054     0.526866    Uiso  ? H
   H645       1.0     0.689258     0.659978     0.495902    Uiso  ? H
   N31        1.0     0.680742     0.286627     0.502590    Uiso  ? N
   C843       1.0     0.673226     0.309502     0.491751    Uiso  ? C
   C844       1.0     0.692292     0.330190     0.490443    Uiso  ? C
   N32        1.0     0.715058     0.322586     0.503217    Uiso  ? N
   C845       1.0     0.708797     0.314961     0.528087    Uiso  ? C
   C846       1.0     0.689009     0.293147     0.527880    Uiso  ? C
   C847       1.0     0.702719     0.278839     0.489366    Uiso  ? C
   C848       1.0     0.723777     0.299297     0.490502    Uiso  ? C
   H646       1.0     0.653329     0.314143     0.492110    Uiso  ? H
   H647       1.0     0.685302     0.346338     0.499040    Uiso  ? H
   H648       1.0     0.700498     0.330982     0.538615    Uiso  ? H
   H649       1.0     0.698971     0.277658     0.537016    Uiso  ? H
   H650       1.0     0.697044     0.276171     0.469447    Uiso  ? H
   H651       1.0     0.739905     0.292915     0.499588    Uiso  ? H
   H652       1.0     0.697002     0.333900     0.471482    Uiso  ? H
   H653       1.0     0.724825     0.307650     0.537771    Uiso  ? H
   H654       1.0     0.673647     0.297239     0.540883    Uiso  ? H
   H655       1.0     0.711817     0.261737     0.496226    Uiso  ? H
   H656       1.0     0.730442     0.305071     0.470432    Uiso  ? H
   N33        1.0     0.317309     0.498844     0.285135    Uiso  ? N
   C849       1.0     0.300346     0.518736     0.282337    Uiso  ? C
   C850       1.0     0.280591     0.522031     0.302770    Uiso  ? C
   N34        1.0     0.282633     0.501396     0.319927    Uiso  ? N
   C851       1.0     0.282225     0.477531     0.306334    Uiso  ? C
   C852       1.0     0.301977     0.475889     0.285600    Uiso  ? C
   C853       1.0     0.328101     0.502726     0.311275    Uiso  ? C
   C854       1.0     0.307137     0.502489     0.330778    Uiso  ? C
   H657       1.0     0.305901     0.533706     0.270880    Uiso  ? H
   H658       1.0     0.262322     0.523125     0.293978    Uiso  ? H
   H659       1.0     0.264385     0.475455     0.297154    Uiso  ? H
   H660       1.0     0.313520     0.460095     0.290565    Uiso  ? H
   H661       1.0     0.338373     0.520416     0.311568    Uiso  ? H
   H662       1.0     0.310697     0.487142     0.344534    Uiso  ? H
   H663       1.0     0.283071     0.540921     0.310814    Uiso  ? H
   H664       1.0     0.283347     0.462033     0.319943    Uiso  ? H
   H665       1.0     0.293297     0.472412     0.266886    Uiso  ? H
   H666       1.0     0.340029     0.488293     0.314394    Uiso  ? H
   H667       1.0     0.307967     0.519758     0.341271    Uiso  ? H
   N35        1.0     0.716573     0.501213     0.321582    Uiso  ? N
   C855       1.0     0.701495     0.522795     0.320825    Uiso  ? C
   C856       1.0     0.680368     0.524191     0.301285    Uiso  ? C
   N36        1.0     0.680174     0.501279     0.285902    Uiso  ? N
   C857       1.0     0.705543     0.499172     0.274832    Uiso  ? C
   C858       1.0     0.726600     0.499630     0.295606    Uiso  ? C
   C859       1.0     0.699583     0.479474     0.323506    Uiso  ? C
   C860       1.0     0.678187     0.480156     0.303703    Uiso  ? C
   H668       1.0     0.700916     0.534772     0.336300    Uiso  ? H
   H669       1.0     0.685106     0.540718     0.289223    Uiso  ? H
   H670       1.0     0.710088     0.514713     0.262321    Uiso  ? H
   H671       1.0     0.735232     0.481137     0.293941    Uiso  ? H
   H672       1.0     0.691896     0.478860     0.341854    Uiso  ? H
   H673       1.0     0.678758     0.464079     0.291812    Uiso  ? H
   H674       1.0     0.662953     0.528377     0.310489    Uiso  ? H
   H675       1.0     0.708383     0.481167     0.263713    Uiso  ? H
   H676       1.0     0.740975     0.514167     0.293364    Uiso  ? H
   H677       1.0     0.710467     0.462160     0.320942    Uiso  ? H
   H678       1.0     0.660108     0.481289     0.312845    Uiso  ? H
   N37        1.0     0.316352     0.501632     0.716384    Uiso  ? N
   C861       1.0     0.316754     0.479172     0.701744    Uiso  ? C
   C862       1.0     0.297064     0.477989     0.681759    Uiso  ? C
   N38        1.0     0.282002     0.501072     0.680198    Uiso  ? N
   C863       1.0     0.270848     0.504841     0.704618    Uiso  ? C
   C864       1.0     0.290463     0.503451     0.726212    Uiso  ? C
   C865       1.0     0.320134     0.521354     0.698267    Uiso  ? C
   C866       1.0     0.300396     0.520168     0.676100    Uiso  ? C
   H679       1.0     0.329513     0.464312     0.706309    Uiso  ? H
   H680       1.0     0.286440     0.460918     0.684025    Uiso  ? H
   H681       1.0     0.255363     0.492328     0.707569    Uiso  ? H
   H682       1.0     0.289319     0.518974     0.740421    Uiso  ? H
   H683       1.0     0.339368     0.522456     0.690641    Uiso  ? H
   H684       1.0     0.293248     0.540275     0.672975    Uiso  ? H
   H685       1.0     0.306540     0.474561     0.664085    Uiso  ? H
   H686       1.0     0.261742     0.523598     0.705089    Uiso  ? H
   H687       1.0     0.285828     0.487027     0.736966    Uiso  ? H
   H688       1.0     0.317281     0.538392     0.708954    Uiso  ? H
   H689       1.0     0.309499     0.514928     0.658613    Uiso  ? H
   N39        1.0     0.718324     0.503530     0.682918    Uiso  ? N
   C867       1.0     0.717045     0.481561     0.699331    Uiso  ? C
   C868       1.0     0.697943     0.480956     0.719952    Uiso  ? C
   N40        1.0     0.681832     0.503482     0.717725    Uiso  ? N
   C869       1.0     0.698967     0.525420     0.719709    Uiso  ? C
   C870       1.0     0.721229     0.524220     0.700440    Uiso  ? C
   C871       1.0     0.692473     0.506006     0.671649    Uiso  ? C
   C872       1.0     0.671398     0.505538     0.691715    Uiso  ? C
   H690       1.0     0.728159     0.465810     0.694387    Uiso  ? H
   H691       1.0     0.706708     0.483019     0.738760    Uiso  ? H
   H692       1.0     0.706899     0.525433     0.739320    Uiso  ? H
   H693       1.0     0.720172     0.540940     0.691121    Uiso  ? H
   H694       1.0     0.689652     0.490734     0.658168    Uiso  ? H
   H695       1.0     0.661022     0.522618     0.690416    Uiso  ? H
   H696       1.0     0.685868     0.464517     0.718408    Uiso  ? H
   H697       1.0     0.689969     0.543204     0.717269    Uiso  ? H
   H698       1.0     0.739081     0.523740     0.709410    Uiso  ? H
   H699       1.0     0.690852     0.522295     0.659950    Uiso  ? H
   H700       1.0     0.658390     0.489687     0.687210    Uiso  ? H
   N41        1.0     0.501715     0.319955     0.718426    Uiso  ? N
   C873       1.0     0.485488     0.325075     0.697767    Uiso  ? C
   C874       1.0     0.484602     0.306093     0.676446    Uiso  ? C
   N42        1.0     0.502607     0.285116     0.682880    Uiso  ? N
   C875       1.0     0.527232     0.296629     0.685972    Uiso  ? C
   C876       1.0     0.525620     0.317574     0.706525    Uiso  ? C
   C877       1.0     0.493843     0.294285     0.726653    Uiso  ? C
   C878       1.0     0.494673     0.274564     0.705701    Uiso  ? C
   H701       1.0     0.476133     0.343248     0.697201    Uiso  ? H
   H702       1.0     0.489495     0.314396     0.657470    Uiso  ? H
   H703       1.0     0.533790     0.304145     0.668287    Uiso  ? H
   H704       1.0     0.540738     0.313256     0.719337    Uiso  ? H
   H705       1.0     0.475067     0.294259     0.735120    Uiso  ? H
   H706       1.0     0.507229     0.258813     0.710196    Uiso  ? H
   H707       1.0     0.466067     0.298943     0.676263    Uiso  ? H
   H708       1.0     0.539462     0.281814     0.693563    Uiso  ? H
   H709       1.0     0.530938     0.334642     0.695204    Uiso  ? H
   H710       1.0     0.506749     0.288971     0.740954    Uiso  ? H
   H711       1.0     0.476536     0.266100     0.702880    Uiso  ? H
   N43        1.0     0.497163     0.317498     0.284425    Uiso  ? N
   C879       1.0     0.499932     0.327144     0.308700    Uiso  ? C
   C880       1.0     0.499441     0.309220     0.330115    Uiso  ? C
   N44        1.0     0.496278     0.283484     0.320195    Uiso  ? N
   C881       1.0     0.473069     0.283552     0.305394    Uiso  ? C
   C882       1.0     0.473605     0.303785     0.284563    Uiso  ? C
   C883       1.0     0.517040     0.299635     0.281161    Uiso  ? C
   C884       1.0     0.517481     0.280189     0.303429    Uiso  ? C
   H712       1.0     0.492209     0.345054     0.311575    Uiso  ? H
   H713       1.0     0.485336     0.314303     0.342185    Uiso  ? H
   H714       1.0     0.457203     0.286430     0.318734    Uiso  ? H
   H715       1.0     0.468630     0.296121     0.266522    Uiso  ? H
   H716       1.0     0.535170     0.307269     0.278423    Uiso  ? H
   H717       1.0     0.518564     0.260198     0.298667    Uiso  ? H
   H718       1.0     0.516454     0.311918     0.340826    Uiso  ? H
   H719       1.0     0.469874     0.265064     0.297098    Uiso  ? H
   H720       1.0     0.457862     0.317326     0.288211    Uiso  ? H
   H721       1.0     0.514325     0.290097     0.263220    Uiso  ? H
   H722       1.0     0.534981     0.284197     0.314606    Uiso  ? H
   N45        1.0     0.500530     0.680665     0.717921    Uiso  ? N
   C885       1.0     0.491266     0.673382     0.694264    Uiso  ? C
   C886       1.0     0.491861     0.692751     0.673543    Uiso  ? C
   N46        1.0     0.501389     0.715909     0.681671    Uiso  ? N
   C887       1.0     0.486384     0.723083     0.704358    Uiso  ? C
   C888       1.0     0.485640     0.702286     0.724569    Uiso  ? C
   C889       1.0     0.526415     0.689906     0.712035    Uiso  ? C
   C890       1.0     0.526430     0.710302     0.690828    Uiso  ? C
   H723       1.0     0.483552     0.655098     0.689430    Uiso  ? H
   H724       1.0     0.472360     0.695464     0.667021    Uiso  ? H
   H725       1.0     0.467670     0.726935     0.698067    Uiso  ? H
   H726       1.0     0.492400     0.709643     0.742015    Uiso  ? H
   H727       1.0     0.539267     0.674920     0.707804    Uiso  ? H
   H728       1.0     0.534367     0.728536     0.696261    Uiso  ? H
   H729       1.0     0.502002     0.684433     0.657201    Uiso  ? H
   H730       1.0     0.493836     0.741055     0.711955    Uiso  ? H
   H731       1.0     0.467095     0.696649     0.730493    Uiso  ? H
   H732       1.0     0.534768     0.696999     0.729031    Uiso  ? H
   H733       1.0     0.538744     0.707124     0.675050    Uiso  ? H
   N47        1.0     0.500449     0.722019     0.315609    Uiso  ? N
   C891       1.0     0.486113     0.701002     0.324034    Uiso  ? C
   C892       1.0     0.484974     0.678450     0.307163    Uiso  ? C
   N48        1.0     0.498830     0.682964     0.284436    Uiso  ? N
   C893       1.0     0.489222     0.706798     0.273697    Uiso  ? C
   C894       1.0     0.488500     0.728822     0.291976    Uiso  ? C
   C895       1.0     0.524787     0.711747     0.310286    Uiso  ? C
   C896       1.0     0.524430     0.689113     0.293051    Uiso  ? C
   H734       1.0     0.474259     0.702473     0.338908    Uiso  ? H
   H735       1.0     0.465712     0.674147     0.302593    Uiso  ? H
   H736       1.0     0.469293     0.704215     0.266408    Uiso  ? H
   H737       1.0     0.497153     0.744010     0.283582    Uiso  ? H
   H738       1.0     0.534334     0.705283     0.327324    Uiso  ? H
   H739       1.0     0.536553     0.690126     0.277679    Uiso  ? H
   H740       1.0     0.491471     0.663414     0.317580    Uiso  ? H
   H741       1.0     0.500315     0.712053     0.256993    Uiso  ? H
   H742       1.0     0.469125     0.735021     0.295246    Uiso  ? H
   H743       1.0     0.537469     0.726867     0.304149    Uiso  ? H
   H744       1.0     0.531768     0.673722     0.305279    Uiso  ? H
