
#======================================================================
# CRYSTAL DATA
#----------------------------------------------------------------------
data_VESTA_phase_1

_chemical_name_common                  ' Atoms. Timestep: 0'
_cell_length_a                         50.555683
_cell_length_b                         50.555683
_cell_length_c                         50.555683
_cell_angle_alpha                      90.000000
_cell_angle_beta                       90.000000
_cell_angle_gamma                      90.000000
_cell_volume                           1.000000
_space_group_name_H-M_alt              'P 1'
_space_group_IT_number                 1

loop_
_space_group_symop_operation_xyz
   'x, y, z'

loop_
   _atom_site_label
   _atom_site_occupancy
   _atom_site_fract_x
   _atom_site_fract_y
   _atom_site_fract_z
   _atom_site_adp_type
   _atom_site_U_iso_or_equiv
   _atom_site_type_symbol
   C1         1.0     0.868826     0.793157     0.258719    Uiso  ? C
   C2         1.0     0.850377     0.810423     0.274975    Uiso  ? C
   C3         1.0     0.841025     0.801997     0.300563    Uiso  ? C
   H1         1.0     0.850439     0.785696     0.310835    Uiso  ? H
   C4         1.0     0.819868     0.815189     0.312037    Uiso  ? C
   H2         1.0     0.814164     0.809640     0.330838    Uiso  ? H
   C5         1.0     0.808651     0.837232     0.299168    Uiso  ? C
   H3         1.0     0.790835     0.845949     0.309171    Uiso  ? H
   C6         1.0     0.817714     0.846354     0.274197    Uiso  ? C
   C7         1.0     0.838181     0.832583     0.262308    Uiso  ? C
   H4         1.0     0.844859     0.838521     0.242347    Uiso  ? H
   C8         1.0     0.802901     0.868298     0.259958    Uiso  ? C
   C9         1.0     0.860525     0.745123     0.214685    Uiso  ? C
   C10        1.0     0.833141     0.737346     0.207456    Uiso  ? C
   C11        1.0     0.819127     0.718177     0.221575    Uiso  ? C
   H5         1.0     0.827492     0.708411     0.240712    Uiso  ? H
   C12        1.0     0.795630     0.707124     0.212777    Uiso  ? C
   H6         1.0     0.785912     0.691019     0.223131    Uiso  ? H
   C13        1.0     0.785063     0.716766     0.189136    Uiso  ? C
   H7         1.0     0.764407     0.709295     0.182819    Uiso  ? H
   C14        1.0     0.799271     0.735506     0.173786    Uiso  ? C
   C15        1.0     0.824208     0.744403     0.181775    Uiso  ? C
   H8         1.0     0.835174     0.757383     0.169964    Uiso  ? H
   C16        1.0     0.786713     0.744732     0.149787    Uiso  ? C
   C17        1.0     0.139747     0.742156     0.202464    Uiso  ? C
   C18        1.0     0.158734     0.728411     0.185966    Uiso  ? C
   C19        1.0     0.160888     0.701617     0.189098    Uiso  ? C
   H9         1.0     0.155587     0.690219     0.205271    Uiso  ? H
   C20        1.0     0.178596     0.687057     0.173389    Uiso  ? C
   H10        1.0     0.183964     0.665836     0.179457    Uiso  ? H
   C21        1.0     0.191386     0.699809     0.152608    Uiso  ? C
   H11        1.0     0.205493     0.689353     0.140992    Uiso  ? H
   C22        1.0     0.189541     0.727798     0.148950    Uiso  ? C
   C23        1.0     0.171875     0.741699     0.166151    Uiso  ? C
   H12        1.0     0.173241     0.763592     0.166557    Uiso  ? H
   C24        1.0     0.207178     0.741670     0.130421    Uiso  ? C
   C25        1.0     0.148539     0.788119     0.247060    Uiso  ? C
   C26        1.0     0.174059     0.799418     0.257676    Uiso  ? C
   C27        1.0     0.185863     0.788210     0.280755    Uiso  ? C
   H13        1.0     0.176386     0.771648     0.290570    Uiso  ? H
   C28        1.0     0.210056     0.798075     0.290439    Uiso  ? C
   H14        1.0     0.220572     0.790521     0.307520    Uiso  ? H
   C29        1.0     0.221733     0.820173     0.277523    Uiso  ? C
   H15        1.0     0.239883     0.829377     0.283407    Uiso  ? H
   C30        1.0     0.210533     0.831760     0.255314    Uiso  ? C
   C31        1.0     0.187556     0.821362     0.245212    Uiso  ? C
   H16        1.0     0.178969     0.830269     0.227150    Uiso  ? H
   C32        1.0     0.221242     0.857340     0.244912    Uiso  ? C
   C33        1.0     0.751265     0.143938     0.215133    Uiso  ? C
   C34        1.0     0.738404     0.166500     0.201763    Uiso  ? C
   C35        1.0     0.716648     0.177149     0.214298    Uiso  ? C
   H17        1.0     0.709234     0.168553     0.233278    Uiso  ? H
   C36        1.0     0.703500     0.197730     0.202301    Uiso  ? C
   H18        1.0     0.687496     0.207835     0.212613    Uiso  ? H
   C37        1.0     0.712474     0.208501     0.177664    Uiso  ? C
   H19        1.0     0.703640     0.226217     0.170302    Uiso  ? H
   C38        1.0     0.734758     0.197797     0.166516    Uiso  ? C
   C39        1.0     0.747999     0.176455     0.177873    Uiso  ? C
   H20        1.0     0.766397     0.167332     0.168391    Uiso  ? H
   C40        1.0     0.745525     0.209717     0.142306    Uiso  ? C
   C41        1.0     0.754900     0.865363     0.218444    Uiso  ? C
   C42        1.0     0.741306     0.841083     0.209960    Uiso  ? C
   C43        1.0     0.720839     0.829468     0.224472    Uiso  ? C
   H21        1.0     0.712057     0.837497     0.242419    Uiso  ? H
   C44        1.0     0.708698     0.805449     0.216242    Uiso  ? C
   H22        1.0     0.691200     0.797699     0.226855    Uiso  ? H
   C45        1.0     0.716384     0.794194     0.192164    Uiso  ? C
   H23        1.0     0.707776     0.775747     0.188195    Uiso  ? H
   C46        1.0     0.736970     0.805726     0.176304    Uiso  ? C
   C47        1.0     0.748280     0.828396     0.186247    Uiso  ? C
   H24        1.0     0.765133     0.837166     0.174386    Uiso  ? H
   C48        1.0     0.745643     0.794156     0.150923    Uiso  ? C
   C49        1.0     0.811365     0.130322     0.265418    Uiso  ? C
   C50        1.0     0.830480     0.147733     0.280851    Uiso  ? C
   C51        1.0     0.831240     0.148221     0.308247    Uiso  ? C
   H25        1.0     0.817999     0.135949     0.319826    Uiso  ? H
   C52        1.0     0.849572     0.164036     0.321399    Uiso  ? C
   H26        1.0     0.850890     0.164749     0.342514    Uiso  ? H
   C53        1.0     0.863492     0.181696     0.306298    Uiso  ? C
   H27        1.0     0.877001     0.195288     0.315904    Uiso  ? H
   C54        1.0     0.862512     0.183343     0.278961    Uiso  ? C
   C55        1.0     0.846890     0.165342     0.266425    Uiso  ? C
   H28        1.0     0.848215     0.164765     0.245552    Uiso  ? H
   C56        1.0     0.877401     0.202667     0.262533    Uiso  ? C
   C57        1.0     0.739126     0.796540     0.872909    Uiso  ? C
   C58        1.0     0.724479     0.811767     0.852613    Uiso  ? C
   C59        1.0     0.698418     0.805484     0.844843    Uiso  ? C
   H29        1.0     0.687068     0.789494     0.852178    Uiso  ? H
   C60        1.0     0.687193     0.820365     0.824438    Uiso  ? C
   H30        1.0     0.666962     0.817487     0.818423    Uiso  ? H
   C61        1.0     0.699880     0.840313     0.811846    Uiso  ? C
   H31        1.0     0.692310     0.848955     0.793773    Uiso  ? H
   C62        1.0     0.725962     0.847029     0.818540    Uiso  ? C
   C63        1.0     0.737874     0.832726     0.839412    Uiso  ? C
   H32        1.0     0.758384     0.837940     0.842604    Uiso  ? H
   C64        1.0     0.741525     0.865408     0.802565    Uiso  ? C
   C65        1.0     0.788444     0.750745     0.869493    Uiso  ? C
   C66        1.0     0.805033     0.736493     0.850014    Uiso  ? C
   C67        1.0     0.805061     0.708965     0.849375    Uiso  ? C
   H33        1.0     0.792226     0.696747     0.862703    Uiso  ? H
   C68        1.0     0.822468     0.694858     0.833745    Uiso  ? C
   H34        1.0     0.824374     0.673960     0.835741    Uiso  ? H
   C69        1.0     0.840319     0.708277     0.817313    Uiso  ? C
   H35        1.0     0.853376     0.697326     0.805973    Uiso  ? H
   C70        1.0     0.840495     0.736293     0.816645    Uiso  ? C
   C71        1.0     0.823354     0.750041     0.834372    Uiso  ? C
   H36        1.0     0.822784     0.771087     0.833195    Uiso  ? H
   C72        1.0     0.858596     0.751184     0.798235    Uiso  ? C
   C73        1.0     0.861527     0.259934     0.206889    Uiso  ? C
   C74        1.0     0.837366     0.271984     0.194837    Uiso  ? C
   C75        1.0     0.826944     0.295272     0.204554    Uiso  ? C
   H37        1.0     0.835803     0.305430     0.220762    Uiso  ? H
   C76        1.0     0.805180     0.306691     0.191690    Uiso  ? C
   H38        1.0     0.797837     0.325319     0.197798    Uiso  ? H
   C77        1.0     0.793606     0.293320     0.169918    Uiso  ? C
   H39        1.0     0.777501     0.302022     0.158927    Uiso  ? H
   C78        1.0     0.803243     0.270180     0.160568    Uiso  ? C
   C79        1.0     0.826125     0.259984     0.173088    Uiso  ? C
   H40        1.0     0.834074     0.241995     0.164991    Uiso  ? H
   C80        1.0     0.790651     0.257770     0.137712    Uiso  ? C
   C81        1.0     0.142558     0.211276     0.252425    Uiso  ? C
   C82        1.0     0.167312     0.199091     0.261927    Uiso  ? C
   C83        1.0     0.181931     0.211705     0.282175    Uiso  ? C
   H41        1.0     0.177526     0.230059     0.289151    Uiso  ? H
   C84        1.0     0.204199     0.201530     0.292778    Uiso  ? C
   H42        1.0     0.215412     0.211241     0.308464    Uiso  ? H
   C85        1.0     0.214258     0.176861     0.283801    Uiso  ? C
   H43        1.0     0.233151     0.169531     0.291736    Uiso  ? H
   C86        1.0     0.201295     0.163494     0.263566    Uiso  ? C
   C87        1.0     0.177886     0.175115     0.253346    Uiso  ? C
   H44        1.0     0.167943     0.165268     0.237287    Uiso  ? H
   C88        1.0     0.211607     0.138774     0.252282    Uiso  ? C
   C89        1.0     0.258769     0.865058     0.196751    Uiso  ? C
   C90        1.0     0.271191     0.843583     0.181284    Uiso  ? C
   C91        1.0     0.298215     0.840477     0.180987    Uiso  ? C
   H45        1.0     0.309938     0.851954     0.194054    Uiso  ? H
   C92        1.0     0.310057     0.819497     0.167588    Uiso  ? C
   H46        1.0     0.330661     0.813812     0.172889    Uiso  ? H
   C93        1.0     0.293865     0.802571     0.152483    Uiso  ? C
   H47        1.0     0.303988     0.785781     0.143842    Uiso  ? H
   C94        1.0     0.267083     0.805757     0.150096    Uiso  ? C
   C95        1.0     0.255002     0.826507     0.164875    Uiso  ? C
   H48        1.0     0.233480     0.829563     0.162038    Uiso  ? H
   C96        1.0     0.251965     0.789822     0.131191    Uiso  ? C
   O1         1.0     0.882581     0.803487     0.240246    Uiso  ? O
   O2         1.0     0.869981     0.767948     0.262082    Uiso  ? O
   O3         1.0     0.875298     0.756141     0.197700    Uiso  ? O
   O4         1.0     0.867701     0.744649     0.238994    Uiso  ? O
   O5         1.0     0.137429     0.767431     0.200661    Uiso  ? O
   O6         1.0     0.127081     0.730249     0.220327    Uiso  ? O
   O7         1.0     0.142950     0.789061     0.222466    Uiso  ? O
   O8         1.0     0.131946     0.779020     0.263535    Uiso  ? O
   O9         1.0     0.763643     0.128372     0.201044    Uiso  ? O
   O10        1.0     0.749657     0.141510     0.239579    Uiso  ? O
   O11        1.0     0.778700     0.867202     0.213488    Uiso  ? O
   O12        1.0     0.744540     0.878956     0.236503    Uiso  ? O
   O13        1.0     0.802124     0.868702     0.235082    Uiso  ? O
   O14        1.0     0.792524     0.887208     0.273933    Uiso  ? O
   O15        1.0     0.813881     0.127222     0.240531    Uiso  ? O
   O16        1.0     0.792888     0.117854     0.277584    Uiso  ? O
   O17        1.0     0.764063     0.798769     0.875481    Uiso  ? O
   O18        1.0     0.725471     0.781153     0.887968    Uiso  ? O
   O19        1.0     0.787874     0.775767     0.870158    Uiso  ? O
   O20        1.0     0.776097     0.737445     0.887414    Uiso  ? O
   O21        1.0     0.800017     0.761149     0.135067    Uiso  ? O
   O22        1.0     0.761264     0.744014     0.147659    Uiso  ? O
   O23        1.0     0.760144     0.808246     0.135794    Uiso  ? O
   O24        1.0     0.741393     0.769829     0.146835    Uiso  ? O
   O25        1.0     0.875872     0.244352     0.193375    Uiso  ? O
   O26        1.0     0.865545     0.262213     0.231703    Uiso  ? O
   O27        1.0     0.875826     0.200772     0.237202    Uiso  ? O
   O28        1.0     0.893326     0.220223     0.273430    Uiso  ? O
   O29        1.0     0.138956     0.210612     0.227351    Uiso  ? O
   O30        1.0     0.126893     0.224223     0.266073    Uiso  ? O
   O31        1.0     0.140908     0.234859     0.204595    Uiso  ? O
   O32        1.0     0.133073     0.269353     0.230110    Uiso  ? O
   O33        1.0     0.197457     0.125657     0.236600    Uiso  ? O
   O34        1.0     0.235840     0.133893     0.254843    Uiso  ? O
   O35        1.0     0.208686     0.868856     0.225356    Uiso  ? O
   O36        1.0     0.243064     0.867078     0.254472    Uiso  ? O
   O37        1.0     0.233998     0.869495     0.194621    Uiso  ? O
   O38        1.0     0.272307     0.879108     0.212357    Uiso  ? O
   O39        1.0     0.243333     0.127025     0.192006    Uiso  ? O
   O40        1.0     0.279331     0.113456     0.212050    Uiso  ? O
   O41        1.0     0.800721     0.241903     0.870684    Uiso  ? O
   O42        1.0     0.760538     0.254095     0.859443    Uiso  ? O
   O43        1.0     0.757120     0.197686     0.880936    Uiso  ? O
   O44        1.0     0.736724     0.232643     0.864659    Uiso  ? O
   O45        1.0     0.770976     0.209974     0.137569    Uiso  ? O
   O46        1.0     0.728925     0.220795     0.127341    Uiso  ? O
   O47        1.0     0.795474     0.233446     0.133922    Uiso  ? O
   O48        1.0     0.775114     0.270464     0.122361    Uiso  ? O
   O49        1.0     0.897193     0.814565     0.177448    Uiso  ? O
   O50        1.0     0.823638     0.111723     0.180628    Uiso  ? O
   O51        1.0     0.818181     0.822242     0.109002    Uiso  ? O
   O52        1.0     0.892058     0.186537     0.180480    Uiso  ? O
   O53        1.0     0.183843     0.109998     0.177886    Uiso  ? O
   O54        1.0     0.813622     0.185230     0.893083    Uiso  ? O
   Zn1        1.0     0.103356     0.785748     0.208035    Uiso  ? Zn
   Zn2        1.0     0.108944     0.746132     0.254205    Uiso  ? Zn
   Zn3        1.0     0.795790     0.104307     0.212530    Uiso  ? Zn
   Zn4        1.0     0.756190     0.108346     0.262164    Uiso  ? Zn
   Zn5        1.0     0.788736     0.792596     0.110300    Uiso  ? Zn
   Zn6        1.0     0.742532     0.750007     0.110772    Uiso  ? Zn
   Zn7        1.0     0.101335     0.214962     0.209386    Uiso  ? Zn
   Zn8        1.0     0.102830     0.257555     0.253409    Uiso  ? Zn
   Zn9        1.0     0.212576     0.103625     0.206849    Uiso  ? Zn
   Zn10       1.0     0.260412     0.100865     0.245934    Uiso  ? Zn
   Zn11       1.0     0.787546     0.216030     0.899464    Uiso  ? Zn
   Zn12       1.0     0.743814     0.251527     0.101800    Uiso  ? Zn
   C97        1.0     0.125638     0.200304     0.735083    Uiso  ? C
   C98        1.0     0.143959     0.184647     0.719407    Uiso  ? C
   C99        1.0     0.144216     0.184373     0.691387    Uiso  ? C
   H49        1.0     0.128654     0.196408     0.682126    Uiso  ? H
   C100       1.0     0.162979     0.169871     0.678302    Uiso  ? C
   H50        1.0     0.162838     0.171469     0.657187    Uiso  ? H
   C101       1.0     0.182487     0.154987     0.691810    Uiso  ? C
   H51        1.0     0.195940     0.142063     0.682581    Uiso  ? H
   C102       1.0     0.182623     0.153841     0.719645    Uiso  ? C
   C103       1.0     0.162054     0.167562     0.733190    Uiso  ? C
   H52        1.0     0.161023     0.165268     0.753313    Uiso  ? H
   C104       1.0     0.200000     0.135568     0.734595    Uiso  ? C
   C105       1.0     0.141573     0.258360     0.791975    Uiso  ? C
   C106       1.0     0.167946     0.268937     0.802037    Uiso  ? C
   C107       1.0     0.180697     0.290699     0.790428    Uiso  ? C
   H53        1.0     0.171301     0.299777     0.773334    Uiso  ? H
   C108       1.0     0.201911     0.302603     0.804053    Uiso  ? C
   H54        1.0     0.209921     0.322233     0.795116    Uiso  ? H
   C109       1.0     0.213112     0.291032     0.825953    Uiso  ? C
   H55        1.0     0.231621     0.298612     0.834465    Uiso  ? H
   C110       1.0     0.203092     0.266773     0.836061    Uiso  ? C
   C111       1.0     0.180399     0.256139     0.824017    Uiso  ? C
   H56        1.0     0.168994     0.240065     0.833070    Uiso  ? H
   C112       1.0     0.213771     0.254859     0.861231    Uiso  ? C
   C113       1.0     0.857710     0.257301     0.788947    Uiso  ? C
   C114       1.0     0.832953     0.268862     0.799709    Uiso  ? C
   C115       1.0     0.821069     0.292228     0.788401    Uiso  ? C
   H57        1.0     0.831250     0.303571     0.774454    Uiso  ? H
   C116       1.0     0.797430     0.301478     0.798655    Uiso  ? C
   H58        1.0     0.789662     0.320858     0.791951    Uiso  ? H
   C117       1.0     0.784968     0.288855     0.820801    Uiso  ? C
   H59        1.0     0.769429     0.299292     0.829981    Uiso  ? H
   C118       1.0     0.795351     0.266056     0.831876    Uiso  ? C
   C119       1.0     0.819795     0.255930     0.820759    Uiso  ? C
   H60        1.0     0.827832     0.237858     0.830455    Uiso  ? H
   C120       1.0     0.785498     0.253606     0.854898    Uiso  ? C
   C121       1.0     0.859417     0.210297     0.748126    Uiso  ? C
   C122       1.0     0.839219     0.194490     0.735358    Uiso  ? C
   C123       1.0     0.833497     0.198264     0.707128    Uiso  ? C
   H61        1.0     0.842319     0.215401     0.696093    Uiso  ? H
   C124       1.0     0.814896     0.182882     0.694690    Uiso  ? C
   H62        1.0     0.812502     0.185745     0.673525    Uiso  ? H
   C125       1.0     0.802290     0.162711     0.707721    Uiso  ? C
   H63        1.0     0.788092     0.149039     0.696880    Uiso  ? H
   C126       1.0     0.805927     0.157935     0.734415    Uiso  ? C
   C127       1.0     0.825322     0.173302     0.747802    Uiso  ? C
   H64        1.0     0.825585     0.170026     0.768646    Uiso  ? H
   C128       1.0     0.791094     0.137566     0.748872    Uiso  ? C
   C129       1.0     0.248995     0.859542     0.780940    Uiso  ? C
   C130       1.0     0.257490     0.833157     0.789993    Uiso  ? C
   C131       1.0     0.271694     0.816686     0.772875    Uiso  ? C
   H65        1.0     0.273704     0.823360     0.753797    Uiso  ? H
   C132       1.0     0.279233     0.791247     0.779043    Uiso  ? C
   H66        1.0     0.290168     0.780844     0.764429    Uiso  ? H
   C133       1.0     0.272846     0.780629     0.803922    Uiso  ? C
   H67        1.0     0.277639     0.759687     0.809777    Uiso  ? H
   C134       1.0     0.259784     0.797719     0.821997    Uiso  ? C
   C135       1.0     0.251247     0.823569     0.815062    Uiso  ? C
   H68        1.0     0.238246     0.834797     0.828107    Uiso  ? H
   C136       1.0     0.252424     0.786428     0.847674    Uiso  ? C
   C137       1.0     0.252602     0.140731     0.795251    Uiso  ? C
   C138       1.0     0.267635     0.159103     0.810414    Uiso  ? C
   C139       1.0     0.294783     0.163094     0.803728    Uiso  ? C
   H69        1.0     0.304663     0.151754     0.788838    Uiso  ? H
   C140       1.0     0.310361     0.181585     0.818635    Uiso  ? C
   H70        1.0     0.331601     0.184898     0.814950    Uiso  ? H
   C141       1.0     0.297329     0.197096     0.838043    Uiso  ? C
   H71        1.0     0.307537     0.212790     0.848188    Uiso  ? H
   C142       1.0     0.271370     0.193092     0.843817    Uiso  ? C
   C143       1.0     0.256716     0.175329     0.828986    Uiso  ? C
   H72        1.0     0.235540     0.175229     0.832671    Uiso  ? H
   C144       1.0     0.259304     0.209041     0.864414    Uiso  ? C
   C145       1.0     0.202639     0.872444     0.737192    Uiso  ? C
   C146       1.0     0.186144     0.850929     0.724801    Uiso  ? C
   C147       1.0     0.195092     0.838765     0.701485    Uiso  ? C
   H73        1.0     0.212718     0.844906     0.691181    Uiso  ? H
   C148       1.0     0.182360     0.817622     0.691365    Uiso  ? C
   H74        1.0     0.188322     0.807144     0.672386    Uiso  ? H
   C149       1.0     0.160426     0.807033     0.704924    Uiso  ? C
   H75        1.0     0.150744     0.790161     0.696700    Uiso  ? H
   C150       1.0     0.151361     0.817283     0.727994    Uiso  ? C
   C151       1.0     0.163924     0.839314     0.738600    Uiso  ? C
   H76        1.0     0.157181     0.847412     0.756737    Uiso  ? H
   C152       1.0     0.130264     0.803469     0.741909    Uiso  ? C
   C153       1.0     0.265966     0.195917     0.127409    Uiso  ? C
   C154       1.0     0.281784     0.178773     0.143469    Uiso  ? C
   C155       1.0     0.309463     0.181910     0.146019    Uiso  ? C
   H77        1.0     0.319205     0.198634     0.135521    Uiso  ? H
   C156       1.0     0.323885     0.164509     0.162378    Uiso  ? C
   H78        1.0     0.345123     0.167184     0.165866    Uiso  ? H
   C157       1.0     0.310650     0.144823     0.175716    Uiso  ? C
   H79        1.0     0.323978     0.135095     0.190660    Uiso  ? H
   C158       1.0     0.283259     0.143368     0.174993    Uiso  ? C
   C159       1.0     0.269319     0.159047     0.156579    Uiso  ? C
   H80        1.0     0.248848     0.156546     0.154940    Uiso  ? H
   C160       1.0     0.268094     0.127783     0.194286    Uiso  ? C
   C161       1.0     0.214683     0.259678     0.142218    Uiso  ? C
   C162       1.0     0.201810     0.272665     0.164759    Uiso  ? C
   C163       1.0     0.212050     0.296584     0.174992    Uiso  ? C
   H81        1.0     0.228671     0.306132     0.164520    Uiso  ? H
   C164       1.0     0.200340     0.308031     0.197850    Uiso  ? C
   H82        1.0     0.208002     0.325064     0.205387    Uiso  ? H
   C165       1.0     0.178702     0.296054     0.209072    Uiso  ? C
   H83        1.0     0.170175     0.307041     0.225832    Uiso  ? H
   C166       1.0     0.167932     0.272432     0.198650    Uiso  ? C
   C167       1.0     0.180776     0.260398     0.176564    Uiso  ? C
   H84        1.0     0.173849     0.241571     0.169179    Uiso  ? H
   C168       1.0     0.145388     0.259050     0.211080    Uiso  ? C
   C169       1.0     0.121642     0.740651     0.801276    Uiso  ? C
   C170       1.0     0.138628     0.724623     0.818077    Uiso  ? C
   C171       1.0     0.140048     0.696784     0.816113    Uiso  ? C
   H85        1.0     0.129440     0.687802     0.799679    Uiso  ? H
   C172       1.0     0.155736     0.681908     0.833707    Uiso  ? C
   H86        1.0     0.155774     0.660013     0.835523    Uiso  ? H
   C173       1.0     0.172798     0.695430     0.851205    Uiso  ? C
   H87        1.0     0.187215     0.685543     0.864541    Uiso  ? H
   C174       1.0     0.173094     0.723474     0.852087    Uiso  ? C
   C175       1.0     0.156042     0.737292     0.835072    Uiso  ? C
   H88        1.0     0.157976     0.757858     0.833407    Uiso  ? H
   C176       1.0     0.192632     0.738093     0.868760    Uiso  ? C
   C177       1.0     0.847466     0.784939     0.749194    Uiso  ? C
   C178       1.0     0.821967     0.795452     0.738711    Uiso  ? C
   C179       1.0     0.806386     0.781671     0.721154    Uiso  ? C
   H89        1.0     0.815715     0.763529     0.712583    Uiso  ? H
   C180       1.0     0.784541     0.793086     0.708392    Uiso  ? C
   H90        1.0     0.774150     0.783248     0.691442    Uiso  ? H
   C181       1.0     0.774040     0.817220     0.718689    Uiso  ? C
   H91        1.0     0.757401     0.826301     0.709527    Uiso  ? H
   C182       1.0     0.789559     0.831218     0.737243    Uiso  ? C
   C183       1.0     0.813264     0.820438     0.746904    Uiso  ? C
   H92        1.0     0.824819     0.831515     0.760424    Uiso  ? H
   C184       1.0     0.779996     0.856511     0.749297    Uiso  ? C
   C185       1.0     0.740210     0.134438     0.797215    Uiso  ? C
   C186       1.0     0.726688     0.154731     0.812196    Uiso  ? C
   C187       1.0     0.701361     0.162740     0.805934    Uiso  ? C
   H93        1.0     0.690524     0.150834     0.791039    Uiso  ? H
   C188       1.0     0.688494     0.183829     0.818854    Uiso  ? C
   H94        1.0     0.668046     0.189060     0.815577    Uiso  ? H
   C189       1.0     0.703203     0.198753     0.836641    Uiso  ? C
   H95        1.0     0.695131     0.214766     0.848216    Uiso  ? H
   C190       1.0     0.728009     0.191370     0.844212    Uiso  ? C
   C191       1.0     0.740722     0.170138     0.830582    Uiso  ? C
   H96        1.0     0.761003     0.164749     0.836393    Uiso  ? H
   C192       1.0     0.739962     0.207343     0.864750    Uiso  ? C
   O55        1.0     0.124455     0.195980     0.759130    Uiso  ? O
   O56        1.0     0.112127     0.219810     0.725579    Uiso  ? O
   O57        1.0     0.129419     0.241276     0.805524    Uiso  ? O
   O58        1.0     0.133983     0.264764     0.768797    Uiso  ? O
   O59        1.0     0.862708     0.233130     0.793957    Uiso  ? O
   O60        1.0     0.870626     0.269021     0.770826    Uiso  ? O
   O61        1.0     0.862961     0.207693     0.773229    Uiso  ? O
   O62        1.0     0.875532     0.223194     0.733788    Uiso  ? O
   O63        1.0     0.231747     0.870571     0.795165    Uiso  ? O
   O64        1.0     0.253960     0.867288     0.757190    Uiso  ? O
   O65        1.0     0.229092     0.135442     0.801226    Uiso  ? O
   O66        1.0     0.264622     0.128342     0.776317    Uiso  ? O
   O67        1.0     0.189464     0.122655     0.754238    Uiso  ? O
   O68        1.0     0.224050     0.129839     0.727509    Uiso  ? O
   O69        1.0     0.191360     0.888482     0.752603    Uiso  ? O
   O70        1.0     0.228152     0.873071     0.733958    Uiso  ? O
   O71        1.0     0.241288     0.192735     0.124769    Uiso  ? O
   O72        1.0     0.276488     0.215626     0.115747    Uiso  ? O
   O73        1.0     0.200878     0.245854     0.126431    Uiso  ? O
   O74        1.0     0.239136     0.262351     0.139038    Uiso  ? O
   O75        1.0     0.207493     0.230568     0.866999    Uiso  ? O
   O76        1.0     0.232780     0.265958     0.873440    Uiso  ? O
   O77        1.0     0.233358     0.209203     0.867531    Uiso  ? O
   O78        1.0     0.274149     0.221383     0.881043    Uiso  ? O
   O79        1.0     0.119318     0.765681     0.805297    Uiso  ? O
   O80        1.0     0.107165     0.729954     0.783778    Uiso  ? O
   O81        1.0     0.116625     0.815509     0.759077    Uiso  ? O
   O82        1.0     0.127028     0.778287     0.738646    Uiso  ? O
   O83        1.0     0.856616     0.794930     0.770602    Uiso  ? O
   O84        1.0     0.860141     0.768875     0.736007    Uiso  ? O
   O85        1.0     0.861403     0.775826     0.801274    Uiso  ? O
   O86        1.0     0.872011     0.738542     0.780896    Uiso  ? O
   O87        1.0     0.796429     0.872816     0.758814    Uiso  ? O
   O88        1.0     0.755923     0.861409     0.750721    Uiso  ? O
   O89        1.0     0.791258     0.136876     0.773842    Uiso  ? O
   O90        1.0     0.774305     0.123680     0.735793    Uiso  ? O
   O91        1.0     0.765653     0.132397     0.799217    Uiso  ? O
   O92        1.0     0.727285     0.121178     0.781266    Uiso  ? O
   O93        1.0     0.759576     0.879713     0.812612    Uiso  ? O
   O94        1.0     0.735219     0.869922     0.777409    Uiso  ? O
   O95        1.0     0.206446     0.767204     0.129299    Uiso  ? O
   O96        1.0     0.218659     0.728514     0.111844    Uiso  ? O
   O97        1.0     0.227453     0.790899     0.131421    Uiso  ? O
   O98        1.0     0.263034     0.775727     0.113841    Uiso  ? O
   O99        1.0     0.244081     0.800990     0.866829    Uiso  ? O
   O100       1.0     0.251006     0.761877     0.850971    Uiso  ? O
   O101       1.0     0.188262     0.762223     0.874359    Uiso  ? O
   O102       1.0     0.214783     0.726908     0.875950    Uiso  ? O
   O103       1.0     0.112909     0.209449     0.826169    Uiso  ? O
   O104       1.0     0.184237     0.898069     0.817907    Uiso  ? O
   O105       1.0     0.185959     0.181584     0.108223    Uiso  ? O
   O106       1.0     0.106568     0.826113     0.811658    Uiso  ? O
   O107       1.0     0.821554     0.894994     0.812455    Uiso  ? O
   O108       1.0     0.191366     0.822531     0.890174    Uiso  ? O
   Zn13       1.0     0.102817     0.216604     0.786300    Uiso  ? Zn
   Zn14       1.0     0.898665     0.257669     0.746128    Uiso  ? Zn
   Zn15       1.0     0.208970     0.103978     0.787392    Uiso  ? Zn
   Zn16       1.0     0.252249     0.105939     0.744170    Uiso  ? Zn
   Zn17       1.0     0.213959     0.213367     0.104003    Uiso  ? Zn
   Zn18       1.0     0.259820     0.252768     0.103790    Uiso  ? Zn
   Zn19       1.0     0.896776     0.794069     0.787550    Uiso  ? Zn
   Zn20       1.0     0.896558     0.750865     0.747115    Uiso  ? Zn
   Zn21       1.0     0.789700     0.899960     0.789781    Uiso  ? Zn
   Zn22       1.0     0.742378     0.100123     0.750516    Uiso  ? Zn
   Zn23       1.0     0.213737     0.788321     0.892955    Uiso  ? Zn
   Zn24       1.0     0.250749     0.745169     0.888292    Uiso  ? Zn
   H97        1.0     0.171850     0.883345     0.818747    Uiso  ? H
   H98        1.0     0.183059     0.111457     0.830056    Uiso  ? H
   H99        1.0     0.819831     0.129744     0.172587    Uiso  ? H
   H100       1.0     0.839716     0.103772     0.175240    Uiso  ? H
   H101       1.0     0.823579     0.184447     0.876713    Uiso  ? H
   H102       1.0     0.819168     0.176410     0.108800    Uiso  ? H
   H103       1.0     0.887521     0.169752     0.187522    Uiso  ? H
   H104       1.0     0.893269     0.188613     0.161329    Uiso  ? H
   H105       1.0     0.176478     0.818769     0.879340    Uiso  ? H
   H106       1.0     0.190251     0.837135     0.102592    Uiso  ? H
   H107       1.0     0.110781     0.828831     0.174003    Uiso  ? H
   H108       1.0     0.881393     0.812738     0.166350    Uiso  ? H
   H109       1.0     0.186812     0.111965     0.159107    Uiso  ? H
   H110       1.0     0.165873     0.105564     0.181119    Uiso  ? H
   H111       1.0     0.897264     0.843120     0.810885    Uiso  ? H
   H112       1.0     0.124907     0.825860     0.815974    Uiso  ? H
   H113       1.0     0.823826     0.831576     0.892231    Uiso  ? H
   H114       1.0     0.818068     0.830526     0.126263    Uiso  ? H
   H115       1.0     0.823858     0.899585     0.831156    Uiso  ? H
   H116       1.0     0.832189     0.881233     0.805962    Uiso  ? H
   H117       1.0     0.168935     0.182913     0.116228    Uiso  ? H
   H118       1.0     0.190253     0.168344     0.893255    Uiso  ? H
   H119       1.0     0.126056     0.196708     0.829302    Uiso  ? H
   H120       1.0     0.104785     0.219191     0.840320    Uiso  ? H
   C193       1.0     0.863308     0.608856     0.341238    Uiso  ? C
   C194       1.0     0.836602     0.600524     0.333326    Uiso  ? C
   C195       1.0     0.818737     0.618825     0.320341    Uiso  ? C
   H121       1.0     0.824893     0.639732     0.316052    Uiso  ? H
   C196       1.0     0.792684     0.612009     0.314468    Uiso  ? C
   H122       1.0     0.780838     0.628422     0.305653    Uiso  ? H
   C197       1.0     0.782986     0.588007     0.322014    Uiso  ? C
   H123       1.0     0.763333     0.584328     0.317854    Uiso  ? H
   C198       1.0     0.800573     0.568726     0.333979    Uiso  ? C
   C199       1.0     0.827274     0.575384     0.340493    Uiso  ? C
   H124       1.0     0.840369     0.561915     0.348175    Uiso  ? H
   C200       1.0     0.789476     0.543334     0.345270    Uiso  ? C
   C201       1.0     0.861775     0.652805     0.387415    Uiso  ? C
   C202       1.0     0.834707     0.661228     0.395687    Uiso  ? C
   C203       1.0     0.819530     0.678492     0.379080    Uiso  ? C
   H125       1.0     0.826340     0.684145     0.359814    Uiso  ? H
   C204       1.0     0.794680     0.687076     0.386464    Uiso  ? C
   H126       1.0     0.782856     0.701148     0.374222    Uiso  ? H
   C205       1.0     0.783989     0.677465     0.410390    Uiso  ? C
   H127       1.0     0.763186     0.683194     0.416094    Uiso  ? H
   C206       1.0     0.799493     0.661689     0.426971    Uiso  ? C
   C207       1.0     0.823474     0.650912     0.419135    Uiso  ? C
   H128       1.0     0.836322     0.638793     0.431428    Uiso  ? H
   C208       1.0     0.789142     0.653630     0.454462    Uiso  ? C
   C209       1.0     0.144288     0.652768     0.391173    Uiso  ? C
   C210       1.0     0.165655     0.665449     0.405745    Uiso  ? C
   C211       1.0     0.174821     0.690761     0.397622    Uiso  ? C
   H129       1.0     0.165356     0.701160     0.381697    Uiso  ? H
   C212       1.0     0.194666     0.703171     0.412281    Uiso  ? C
   H130       1.0     0.201411     0.722655     0.407715    Uiso  ? H
   C213       1.0     0.206199     0.690933     0.433014    Uiso  ? C
   H131       1.0     0.220519     0.702214     0.445389    Uiso  ? H
   C214       1.0     0.198884     0.665016     0.440307    Uiso  ? C
   C215       1.0     0.178226     0.652058     0.427523    Uiso  ? C
   H132       1.0     0.170273     0.633440     0.433034    Uiso  ? H
   C216       1.0     0.214491     0.653614     0.462354    Uiso  ? C
   C217       1.0     0.143995     0.602668     0.345000    Uiso  ? C
   C218       1.0     0.165271     0.587649     0.332118    Uiso  ? C
   C219       1.0     0.170956     0.592628     0.305910    Uiso  ? C
   H133       1.0     0.160917     0.608144     0.295004    Uiso  ? H
   C220       1.0     0.190032     0.577676     0.293268    Uiso  ? C
   H134       1.0     0.193862     0.582766     0.273694    Uiso  ? H
   C221       1.0     0.204728     0.558209     0.306807    Uiso  ? C
   H135       1.0     0.220102     0.546538     0.298432    Uiso  ? H
   C222       1.0     0.200382     0.553089     0.333581    Uiso  ? C
   C223       1.0     0.180149     0.568144     0.346690    Uiso  ? C
   H136       1.0     0.174601     0.567824     0.367997    Uiso  ? H
   C224       1.0     0.216709     0.532722     0.347983    Uiso  ? C
   C225       1.0     0.732432     0.481214     0.403150    Uiso  ? C
   C226       1.0     0.716098     0.465776     0.421172    Uiso  ? C
   C227       1.0     0.688760     0.466672     0.420711    Uiso  ? C
   H137       1.0     0.678306     0.478756     0.408149    Uiso  ? H
   C228       1.0     0.675014     0.450583     0.437922    Uiso  ? C
   H138       1.0     0.654318     0.450626     0.440964    Uiso  ? H
   C229       1.0     0.688196     0.433168     0.455813    Uiso  ? C
   H139       1.0     0.677247     0.420056     0.468415    Uiso  ? H
   C230       1.0     0.715575     0.433673     0.457370    Uiso  ? C
   C231       1.0     0.729240     0.451170     0.440843    Uiso  ? C
   H140       1.0     0.751027     0.451012     0.441043    Uiso  ? H
   C232       1.0     0.730751     0.413764     0.472409    Uiso  ? C
   C233       1.0     0.743725     0.538529     0.396490    Uiso  ? C
   C234       1.0     0.729437     0.559684     0.411381    Uiso  ? C
   C235       1.0     0.703891     0.568613     0.403382    Uiso  ? C
   H141       1.0     0.693618     0.557554     0.388461    Uiso  ? H
   C236       1.0     0.692027     0.589766     0.415669    Uiso  ? C
   H142       1.0     0.673454     0.595797     0.410754    Uiso  ? H
   C237       1.0     0.705480     0.604267     0.434344    Uiso  ? C
   H143       1.0     0.695321     0.621297     0.442675    Uiso  ? H
   C238       1.0     0.731216     0.594928     0.442756    Uiso  ? C
   C239       1.0     0.742105     0.571422     0.432191    Uiso  ? C
   H144       1.0     0.760421     0.561963     0.439206    Uiso  ? H
   C240       1.0     0.746256     0.609253     0.463418    Uiso  ? C
   C241       1.0     0.784529     0.457086     0.346611    Uiso  ? C
   C242       1.0     0.798215     0.436038     0.333020    Uiso  ? C
   C243       1.0     0.786495     0.424200     0.310156    Uiso  ? C
   H145       1.0     0.768940     0.431216     0.302008    Uiso  ? H
   C244       1.0     0.797370     0.400450     0.300614    Uiso  ? C
   H146       1.0     0.788812     0.392332     0.282667    Uiso  ? H
   C245       1.0     0.820391     0.389753     0.311220    Uiso  ? C
   H147       1.0     0.827822     0.372123     0.304914    Uiso  ? H
   C246       1.0     0.833412     0.401716     0.332296    Uiso  ? C
   C247       1.0     0.822270     0.424916     0.342829    Uiso  ? C
   H148       1.0     0.831232     0.433265     0.360079    Uiso  ? H
   C248       1.0     0.856818     0.389614     0.343837    Uiso  ? C
   C249       1.0     0.745030     0.601478     0.527293    Uiso  ? C
   C250       1.0     0.729261     0.584752     0.545283    Uiso  ? C
   C251       1.0     0.701886     0.588177     0.545916    Uiso  ? C
   H149       1.0     0.691954     0.600467     0.532042    Uiso  ? H
   C252       1.0     0.687678     0.578153     0.567084    Uiso  ? C
   H150       1.0     0.666764     0.582101     0.568309    Uiso  ? H
   C253       1.0     0.699801     0.560907     0.585375    Uiso  ? C
   H151       1.0     0.688601     0.554098     0.601747    Uiso  ? H
   C254       1.0     0.725958     0.553083     0.581002    Uiso  ? C
   C255       1.0     0.740819     0.566045     0.561378    Uiso  ? C
   H152       1.0     0.762532     0.563336     0.559956    Uiso  ? H
   C256       1.0     0.740032     0.535208     0.600347    Uiso  ? C
   C257       1.0     0.796484     0.664078     0.533264    Uiso  ? C
   C258       1.0     0.812504     0.678134     0.553719    Uiso  ? C
   C259       1.0     0.807959     0.705502     0.559327    Uiso  ? C
   H153       1.0     0.793525     0.715111     0.548208    Uiso  ? H
   C260       1.0     0.824560     0.717939     0.578025    Uiso  ? C
   H154       1.0     0.823053     0.738881     0.581484    Uiso  ? H
   C261       1.0     0.843796     0.703537     0.590720    Uiso  ? C
   H155       1.0     0.856749     0.713269     0.605122    Uiso  ? H
   C262       1.0     0.847023     0.675952     0.589015    Uiso  ? C
   C263       1.0     0.830154     0.663817     0.571003    Uiso  ? C
   H156       1.0     0.830429     0.642878     0.566974    Uiso  ? H
   C264       1.0     0.867960     0.662353     0.605559    Uiso  ? C
   C265       1.0     0.855736     0.343936     0.390752    Uiso  ? C
   C266       1.0     0.829873     0.334819     0.401160    Uiso  ? C
   C267       1.0     0.816059     0.314932     0.387328    Uiso  ? C
   H157       1.0     0.822776     0.307755     0.368495    Uiso  ? H
   C268       1.0     0.790271     0.308493     0.395030    Uiso  ? C
   H158       1.0     0.778324     0.293762     0.383617    Uiso  ? H
   C269       1.0     0.777838     0.320370     0.416723    Uiso  ? C
   H159       1.0     0.759523     0.314430     0.423128    Uiso  ? H
   C270       1.0     0.792886     0.338755     0.431851    Uiso  ? C
   C271       1.0     0.818144     0.345362     0.423518    Uiso  ? C
   H160       1.0     0.825759     0.362636     0.432961    Uiso  ? H
   C272       1.0     0.781471     0.352457     0.455354    Uiso  ? C
   C273       1.0     0.138379     0.388871     0.345592    Uiso  ? C
   C274       1.0     0.161099     0.401648     0.332875    Uiso  ? C
   C275       1.0     0.171565     0.389668     0.310161    Uiso  ? C
   H161       1.0     0.161184     0.374544     0.297767    Uiso  ? H
   C276       1.0     0.196993     0.395942     0.302413    Uiso  ? C
   H162       1.0     0.205707     0.385706     0.285332    Uiso  ? H
   C277       1.0     0.210932     0.416816     0.313367    Uiso  ? C
   H163       1.0     0.231432     0.419611     0.306516    Uiso  ? H
   C278       1.0     0.199566     0.430599     0.334867    Uiso  ? C
   C279       1.0     0.174665     0.423771     0.345127    Uiso  ? C
   H164       1.0     0.166018     0.433797     0.361515    Uiso  ? H
   C280       1.0     0.213815     0.452935     0.346872    Uiso  ? C
   C281       1.0     0.262753     0.529233     0.395531    Uiso  ? C
   C282       1.0     0.276776     0.550287     0.411112    Uiso  ? C
   C283       1.0     0.304342     0.555376     0.409332    Uiso  ? C
   H165       1.0     0.317250     0.542491     0.397200    Uiso  ? H
   C284       1.0     0.317082     0.574397     0.424196    Uiso  ? C
   H166       1.0     0.338039     0.578420     0.422195    Uiso  ? H
   C285       1.0     0.302194     0.591376     0.439690    Uiso  ? C
   H167       1.0     0.311509     0.606096     0.451410    Uiso  ? H
   C286       1.0     0.274654     0.587626     0.442214    Uiso  ? C
   C287       1.0     0.261801     0.567205     0.427974    Uiso  ? C
   H168       1.0     0.240656     0.562517     0.433099    Uiso  ? H
   C288       1.0     0.260049     0.604146     0.461490    Uiso  ? C
   O109       1.0     0.879217     0.592296     0.352011    Uiso  ? O
   O110       1.0     0.870017     0.634243     0.339436    Uiso  ? O
   O111       1.0     0.875288     0.637129     0.401006    Uiso  ? O
   O112       1.0     0.868621     0.656350     0.362996    Uiso  ? O
   O113       1.0     0.139968     0.627655     0.393120    Uiso  ? O
   O114       1.0     0.127748     0.667249     0.378560    Uiso  ? O
   O115       1.0     0.141462     0.602496     0.370183    Uiso  ? O
   O116       1.0     0.129661     0.618526     0.330460    Uiso  ? O
   O117       1.0     0.756008     0.487704     0.409769    Uiso  ? O
   O118       1.0     0.724835     0.483841     0.379788    Uiso  ? O
   O119       1.0     0.762136     0.525251     0.408538    Uiso  ? O
   O120       1.0     0.735680     0.530910     0.373965    Uiso  ? O
   O121       1.0     0.803219     0.530083     0.362273    Uiso  ? O
   O122       1.0     0.765633     0.538120     0.339964    Uiso  ? O
   O123       1.0     0.792734     0.463998     0.369514    Uiso  ? O
   O124       1.0     0.767989     0.470952     0.334044    Uiso  ? O
   O125       1.0     0.762116     0.590745     0.511929    Uiso  ? O
   O126       1.0     0.740358     0.626964     0.527198    Uiso  ? O
   O127       1.0     0.794781     0.639066     0.536120    Uiso  ? O
   O128       1.0     0.784492     0.675966     0.515039    Uiso  ? O
   O129       1.0     0.802440     0.636977     0.467450    Uiso  ? O
   O130       1.0     0.765696     0.658538     0.462297    Uiso  ? O
   O131       1.0     0.763056     0.596568     0.477884    Uiso  ? O
   O132       1.0     0.743895     0.634906     0.465830    Uiso  ? O
   O133       1.0     0.869614     0.359750     0.404303    Uiso  ? O
   O134       1.0     0.860012     0.341539     0.365869    Uiso  ? O
   O135       1.0     0.872106     0.403356     0.358716    Uiso  ? O
   O136       1.0     0.860299     0.364387     0.340878    Uiso  ? O
   O137       1.0     0.136099     0.392016     0.370802    Uiso  ? O
   O138       1.0     0.121604     0.376712     0.332762    Uiso  ? O
   O139       1.0     0.135490     0.370416     0.392983    Uiso  ? O
   O140       1.0     0.119970     0.331969     0.378441    Uiso  ? O
   O141       1.0     0.201299     0.469103     0.361276    Uiso  ? O
   O142       1.0     0.238913     0.452978     0.345068    Uiso  ? O
   O143       1.0     0.213242     0.529185     0.373063    Uiso  ? O
   O144       1.0     0.229920     0.516468     0.335290    Uiso  ? O
   O145       1.0     0.237514     0.529852     0.394793    Uiso  ? O
   O146       1.0     0.275493     0.512720     0.382967    Uiso  ? O
   O147       1.0     0.251533     0.470881     0.404869    Uiso  ? O
   O148       1.0     0.260412     0.454351     0.365716    Uiso  ? O
   O149       1.0     0.784316     0.383508     0.535582    Uiso  ? O
   O150       1.0     0.763859     0.346800     0.524417    Uiso  ? O
   O151       1.0     0.761590     0.403773     0.530629    Uiso  ? O
   O152       1.0     0.722473     0.388698     0.517618    Uiso  ? O
   O153       1.0     0.755065     0.417977     0.476760    Uiso  ? O
   O154       1.0     0.719579     0.392514     0.482071    Uiso  ? O
   O155       1.0     0.795812     0.365002     0.471520    Uiso  ? O
   O156       1.0     0.756390     0.351146     0.458960    Uiso  ? O
   O157       1.0     0.892561     0.571469     0.401125    Uiso  ? O
   O158       1.0     0.824562     0.499084     0.411672    Uiso  ? O
   O159       1.0     0.830322     0.592493     0.509928    Uiso  ? O
   O160       1.0     0.892778     0.411099     0.420648    Uiso  ? O
   O161       1.0     0.194091     0.487597     0.421839    Uiso  ? O
   O162       1.0     0.813576     0.422390     0.490596    Uiso  ? O
   Zn25       1.0     0.101517     0.607821     0.383241    Uiso  ? Zn
   Zn26       1.0     0.109580     0.652111     0.346021    Uiso  ? Zn
   Zn27       1.0     0.790685     0.501020     0.386758    Uiso  ? Zn
   Zn28       1.0     0.744514     0.501028     0.344613    Uiso  ? Zn
   Zn29       1.0     0.793707     0.614196     0.502935    Uiso  ? Zn
   Zn30       1.0     0.751706     0.658272     0.500289    Uiso  ? Zn
   Zn31       1.0     0.895668     0.387221     0.388390    Uiso  ? Zn
   Zn32       1.0     0.896718     0.345857     0.346189    Uiso  ? Zn
   Zn33       1.0     0.220158     0.492107     0.390825    Uiso  ? Zn
   Zn34       1.0     0.257581     0.491801     0.350402    Uiso  ? Zn
   Zn35       1.0     0.783526     0.395612     0.496279    Uiso  ? Zn
   Zn36       1.0     0.736877     0.356089     0.493702    Uiso  ? Zn
   C289       1.0     0.137727     0.390754     0.651158    Uiso  ? C
   C290       1.0     0.161774     0.402187     0.663271    Uiso  ? C
   C291       1.0     0.172660     0.391040     0.685706    Uiso  ? C
   H169       1.0     0.163572     0.373523     0.694437    Uiso  ? H
   C292       1.0     0.194145     0.402806     0.699517    Uiso  ? C
   H170       1.0     0.200799     0.395420     0.718278    Uiso  ? H
   C293       1.0     0.204285     0.426674     0.689373    Uiso  ? C
   H171       1.0     0.220652     0.435860     0.699121    Uiso  ? H
   C294       1.0     0.195830     0.436948     0.665586    Uiso  ? C
   C295       1.0     0.174183     0.425588     0.652238    Uiso  ? C
   H172       1.0     0.166672     0.433301     0.634345    Uiso  ? H
   C296       1.0     0.210770     0.460532     0.655047    Uiso  ? C
   C297       1.0     0.121233     0.338186     0.595643    Uiso  ? C
   C298       1.0     0.137585     0.322840     0.576899    Uiso  ? C
   C299       1.0     0.138111     0.295461     0.577566    Uiso  ? C
   H173       1.0     0.124445     0.285147     0.589545    Uiso  ? H
   C300       1.0     0.155662     0.279971     0.561977    Uiso  ? C
   H174       1.0     0.155635     0.258640     0.563607    Uiso  ? H
   C301       1.0     0.174529     0.293637     0.546151    Uiso  ? C
   H175       1.0     0.188901     0.283109     0.534491    Uiso  ? H
   C302       1.0     0.175278     0.322656     0.546495    Uiso  ? C
   C303       1.0     0.155646     0.335735     0.559516    Uiso  ? C
   H176       1.0     0.154942     0.357766     0.558931    Uiso  ? H
   C304       1.0     0.194417     0.338991     0.530988    Uiso  ? C
   C305       1.0     0.856040     0.347969     0.603860    Uiso  ? C
   C306       1.0     0.832621     0.337292     0.590902    Uiso  ? C
   C307       1.0     0.819764     0.314143     0.600631    Uiso  ? C
   H177       1.0     0.828297     0.302982     0.616173    Uiso  ? H
   C308       1.0     0.793867     0.307628     0.592628    Uiso  ? C
   H178       1.0     0.785249     0.290519     0.601719    Uiso  ? H
   C309       1.0     0.780340     0.322587     0.573901    Uiso  ? C
   H179       1.0     0.759551     0.317070     0.570388    Uiso  ? H
   C310       1.0     0.792520     0.344599     0.561977    Uiso  ? C
   C311       1.0     0.818674     0.351118     0.569806    Uiso  ? C
   H180       1.0     0.830354     0.366948     0.559257    Uiso  ? H
   C312       1.0     0.779246     0.358951     0.539914    Uiso  ? C
   C313       1.0     0.850197     0.385571     0.649465    Uiso  ? C
   C314       1.0     0.823660     0.395410     0.658275    Uiso  ? C
   C315       1.0     0.807231     0.381425     0.675770    Uiso  ? C
   H181       1.0     0.812352     0.361501     0.682239    Uiso  ? H
   C316       1.0     0.782120     0.392243     0.684535    Uiso  ? C
   H182       1.0     0.769053     0.382596     0.698077    Uiso  ? H
   C317       1.0     0.773707     0.417035     0.674874    Uiso  ? C
   H183       1.0     0.753973     0.424208     0.682191    Uiso  ? H
   C318       1.0     0.789593     0.430664     0.658010    Uiso  ? C
   C319       1.0     0.814459     0.420285     0.649419    Uiso  ? C
   H184       1.0     0.827248     0.432480     0.637518    Uiso  ? H
   C320       1.0     0.781422     0.456685     0.649069    Uiso  ? C
   C321       1.0     0.257295     0.543658     0.613914    Uiso  ? C
   C322       1.0     0.268901     0.567507     0.601605    Uiso  ? C
   C323       1.0     0.289558     0.580641     0.615217    Uiso  ? C
   H185       1.0     0.296524     0.574596     0.633397    Uiso  ? H
   C324       1.0     0.301678     0.602243     0.604002    Uiso  ? C
   H186       1.0     0.317895     0.610337     0.613892    Uiso  ? H
   C325       1.0     0.290843     0.614382     0.581743    Uiso  ? C
   H187       1.0     0.300542     0.634125     0.579154    Uiso  ? H
   C326       1.0     0.270801     0.601185     0.567903    Uiso  ? C
   C327       1.0     0.259632     0.578159     0.577803    Uiso  ? C
   H188       1.0     0.243925     0.568101     0.567150    Uiso  ? H
   C328       1.0     0.261128     0.612928     0.542393    Uiso  ? C
   C329       1.0     0.258217     0.461873     0.610998    Uiso  ? C
   C330       1.0     0.270750     0.439617     0.598234    Uiso  ? C
   C331       1.0     0.296079     0.429922     0.606601    Uiso  ? C
   H189       1.0     0.306833     0.441478     0.622253    Uiso  ? H
   C332       1.0     0.307479     0.407978     0.593833    Uiso  ? C
   H190       1.0     0.327554     0.401943     0.596559    Uiso  ? H
   C333       1.0     0.292923     0.393367     0.575453    Uiso  ? C
   H191       1.0     0.300891     0.374890     0.567717    Uiso  ? H
   C334       1.0     0.269421     0.404368     0.565128    Uiso  ? C
   C335       1.0     0.257581     0.426138     0.578555    Uiso  ? C
   H192       1.0     0.238497     0.434367     0.570939    Uiso  ? H
   C336       1.0     0.254779     0.390127     0.543352    Uiso  ? C
   C337       1.0     0.210190     0.540942     0.659826    Uiso  ? C
   C338       1.0     0.198706     0.564516     0.673243    Uiso  ? C
   C339       1.0     0.214007     0.578048     0.691832    Uiso  ? C
   H193       1.0     0.230477     0.569007     0.702683    Uiso  ? H
   C340       1.0     0.207949     0.605097     0.697643    Uiso  ? C
   H194       1.0     0.217265     0.614095     0.713970    Uiso  ? H
   C341       1.0     0.186930     0.617535     0.684132    Uiso  ? C
   H195       1.0     0.182549     0.637319     0.688309    Uiso  ? H
   C342       1.0     0.171827     0.603272     0.666395    Uiso  ? C
   C343       1.0     0.176713     0.576311     0.662379    Uiso  ? C
   H196       1.0     0.165231     0.565909     0.647979    Uiso  ? H
   C344       1.0     0.148412     0.614576     0.654378    Uiso  ? C
   C345       1.0     0.253344     0.386657     0.461777    Uiso  ? C
   C346       1.0     0.266669     0.396110     0.437417    Uiso  ? C
   C347       1.0     0.282432     0.378628     0.423176    Uiso  ? C
   H197       1.0     0.285378     0.359012     0.429474    Uiso  ? H
   C348       1.0     0.292808     0.386792     0.399028    Uiso  ? C
   H198       1.0     0.303371     0.373286     0.386248    Uiso  ? H
   C349       1.0     0.287751     0.411806     0.387987    Uiso  ? C
   H199       1.0     0.291535     0.416573     0.367914    Uiso  ? H
   C350       1.0     0.272440     0.429491     0.402294    Uiso  ? C
   C351       1.0     0.261089     0.420675     0.426556    Uiso  ? C
   H200       1.0     0.248721     0.433512     0.438482    Uiso  ? H
   C352       1.0     0.263962     0.454986     0.389844    Uiso  ? C
   C353       1.0     0.200487     0.346292     0.468789    Uiso  ? C
   C354       1.0     0.185279     0.332281     0.448769    Uiso  ? C
   C355       1.0     0.184260     0.303497     0.448971    Uiso  ? C
   H201       1.0     0.192814     0.292708     0.464623    Uiso  ? H
   C356       1.0     0.169294     0.289804     0.430831    Uiso  ? C
   H202       1.0     0.169884     0.267560     0.432000    Uiso  ? H
   C357       1.0     0.153099     0.303769     0.413462    Uiso  ? C
   H203       1.0     0.142981     0.293218     0.396914    Uiso  ? H
   C358       1.0     0.153637     0.331611     0.412945    Uiso  ? C
   C359       1.0     0.170467     0.345439     0.428769    Uiso  ? C
   H204       1.0     0.170930     0.365985     0.427723    Uiso  ? H
   C360       1.0     0.136155     0.345317     0.392959    Uiso  ? C
   C361       1.0     0.143604     0.659732     0.608273    Uiso  ? C
   C362       1.0     0.165571     0.672180     0.593222    Uiso  ? C
   C363       1.0     0.179472     0.693717     0.603496    Uiso  ? C
   H205       1.0     0.171329     0.705395     0.621282    Uiso  ? H
   C364       1.0     0.201383     0.703874     0.590300    Uiso  ? C
   H206       1.0     0.212867     0.719065     0.598913    Uiso  ? H
   C365       1.0     0.211418     0.691408     0.567698    Uiso  ? C
   H207       1.0     0.228959     0.699471     0.558686    Uiso  ? H
   C366       1.0     0.199559     0.669759     0.558235    Uiso  ? C
   C367       1.0     0.175440     0.662023     0.570041    Uiso  ? C
   H208       1.0     0.166104     0.646234     0.560705    Uiso  ? H
   C368       1.0     0.211757     0.654690     0.537948    Uiso  ? C
   C369       1.0     0.864370     0.615812     0.656702    Uiso  ? C
   C370       1.0     0.842121     0.601600     0.668873    Uiso  ? C
   C371       1.0     0.834694     0.608391     0.694819    Uiso  ? C
   H209       1.0     0.844511     0.625151     0.703862    Uiso  ? H
   C372       1.0     0.815032     0.593664     0.707711    Uiso  ? C
   H210       1.0     0.809984     0.598960     0.727814    Uiso  ? H
   C373       1.0     0.802448     0.572393     0.695541    Uiso  ? C
   H211       1.0     0.787639     0.560687     0.705909    Uiso  ? H
   C374       1.0     0.808479     0.565856     0.669071    Uiso  ? C
   C375       1.0     0.828570     0.581215     0.655820    Uiso  ? C
   H212       1.0     0.834128     0.572409     0.636509    Uiso  ? H
   C376       1.0     0.796726     0.542252     0.656289    Uiso  ? C
   C377       1.0     0.741011     0.471910     0.602847    Uiso  ? C
   C378       1.0     0.725786     0.454024     0.586586    Uiso  ? C
   C379       1.0     0.698839     0.452157     0.588605    Uiso  ? C
   H213       1.0     0.688105     0.464011     0.603460    Uiso  ? H
   C380       1.0     0.684345     0.433843     0.573541    Uiso  ? C
   H214       1.0     0.662998     0.431598     0.576868    Uiso  ? H
   C381       1.0     0.696066     0.418636     0.555974    Uiso  ? C
   H215       1.0     0.683148     0.409112     0.542826    Uiso  ? H
   C382       1.0     0.723816     0.418456     0.553343    Uiso  ? C
   C383       1.0     0.738617     0.436456     0.569577    Uiso  ? C
   H216       1.0     0.759778     0.435484     0.569284    Uiso  ? H
   C384       1.0     0.736097     0.402351     0.533474    Uiso  ? C
   O163       1.0     0.130826     0.396110     0.627469    Uiso  ? O
   O164       1.0     0.125154     0.373311     0.663908    Uiso  ? O
   O165       1.0     0.107831     0.358907     0.587759    Uiso  ? O
   O166       1.0     0.118430     0.330046     0.619664    Uiso  ? O
   O167       1.0     0.873281     0.361815     0.590953    Uiso  ? O
   O168       1.0     0.861031     0.340795     0.627165    Uiso  ? O
   O169       1.0     0.864524     0.400110     0.634994    Uiso  ? O
   O170       1.0     0.858572     0.363305     0.655852    Uiso  ? O
   O171       1.0     0.244070     0.527694     0.599876    Uiso  ? O
   O172       1.0     0.261908     0.537105     0.638679    Uiso  ? O
   O173       1.0     0.233697     0.465770     0.608087    Uiso  ? O
   O174       1.0     0.271885     0.476103     0.626217    Uiso  ? O
   O175       1.0     0.211032     0.464514     0.629724    Uiso  ? O
   O176       1.0     0.223604     0.475990     0.670175    Uiso  ? O
   O177       1.0     0.195237     0.524187     0.646848    Uiso  ? O
   O178       1.0     0.235165     0.536866     0.661082    Uiso  ? O
   O179       1.0     0.228927     0.391260     0.465315    Uiso  ? O
   O180       1.0     0.263997     0.368590     0.476661    Uiso  ? O
   O181       1.0     0.201973     0.371179     0.468611    Uiso  ? O
   O182       1.0     0.215601     0.332669     0.484077    Uiso  ? O
   O183       1.0     0.193561     0.364341     0.530902    Uiso  ? O
   O184       1.0     0.212209     0.327026     0.516370    Uiso  ? O
   O185       1.0     0.244979     0.402798     0.525109    Uiso  ? O
   O186       1.0     0.254588     0.365221     0.543532    Uiso  ? O
   O187       1.0     0.128261     0.643673     0.596547    Uiso  ? O
   O188       1.0     0.142663     0.662341     0.633229    Uiso  ? O
   O189       1.0     0.131602     0.600892     0.641942    Uiso  ? O
   O190       1.0     0.145105     0.640205     0.654859    Uiso  ? O
   O191       1.0     0.866257     0.614655     0.631558    Uiso  ? O
   O192       1.0     0.881343     0.629023     0.669910    Uiso  ? O
   O193       1.0     0.870656     0.637573     0.604615    Uiso  ? O
   O194       1.0     0.881642     0.675184     0.622815    Uiso  ? O
   O195       1.0     0.808437     0.529533     0.639140    Uiso  ? O
   O196       1.0     0.773436     0.535778     0.663635    Uiso  ? O
   O197       1.0     0.787672     0.465202     0.626083    Uiso  ? O
   O198       1.0     0.766312     0.470897     0.663396    Uiso  ? O
   O199       1.0     0.766211     0.472515     0.599447    Uiso  ? O
   O200       1.0     0.729584     0.487346     0.618976    Uiso  ? O
   O201       1.0     0.764369     0.530957     0.596151    Uiso  ? O
   O202       1.0     0.728344     0.522434     0.619500    Uiso  ? O
   O203       1.0     0.212898     0.628818     0.466144    Uiso  ? O
   O204       1.0     0.229192     0.668426     0.475560    Uiso  ? O
   O205       1.0     0.233050     0.603903     0.463474    Uiso  ? O
   O206       1.0     0.274257     0.619482     0.476560    Uiso  ? O
   O207       1.0     0.251415     0.597294     0.525611    Uiso  ? O
   O208       1.0     0.262153     0.637531     0.538051    Uiso  ? O
   O209       1.0     0.199004     0.638455     0.524078    Uiso  ? O
   O210       1.0     0.236555     0.658619     0.533256    Uiso  ? O
   O211       1.0     0.104383     0.423033     0.586075    Uiso  ? O
   O212       1.0     0.180168     0.504729     0.591513    Uiso  ? O
   O213       1.0     0.190769     0.425133     0.512052    Uiso  ? O
   O214       1.0     0.109467     0.586229     0.586309    Uiso  ? O
   O215       1.0     0.827897     0.511517     0.599447    Uiso  ? O
   O216       1.0     0.191518     0.583066     0.513799    Uiso  ? O
   Zn37       1.0     0.895243     0.391946     0.609264    Uiso  ? Zn
   Zn38       1.0     0.896726     0.345394     0.651409    Uiso  ? Zn
   Zn39       1.0     0.213382     0.503473     0.616339    Uiso  ? Zn
   Zn40       1.0     0.258329     0.499465     0.656774    Uiso  ? Zn
   Zn41       1.0     0.212028     0.389937     0.504725    Uiso  ? Zn
   Zn42       1.0     0.249615     0.343825     0.506490    Uiso  ? Zn
   Zn43       1.0     0.104618     0.614262     0.613932    Uiso  ? Zn
   Zn44       1.0     0.105762     0.657742     0.654734    Uiso  ? Zn
   Zn45       1.0     0.788776     0.506329     0.613451    Uiso  ? Zn
   Zn46       1.0     0.746494     0.504996     0.653478    Uiso  ? Zn
   Zn47       1.0     0.218607     0.610555     0.502055    Uiso  ? Zn
   Zn48       1.0     0.259463     0.653557     0.499446    Uiso  ? Zn
   H217       1.0     0.161637     0.504842     0.597338    Uiso  ? H
   H218       1.0     0.184152     0.498474     0.574009    Uiso  ? H
   H219       1.0     0.822193     0.489753     0.428522    Uiso  ? H
   H220       1.0     0.840974     0.503795     0.405023    Uiso  ? H
   H221       1.0     0.809411     0.439820     0.494311    Uiso  ? H
   H222       1.0     0.826582     0.416120     0.478388    Uiso  ? H
   H223       1.0     0.102679     0.406416     0.436806    Uiso  ? H
   H224       1.0     0.882079     0.426932     0.420992    Uiso  ? H
   H225       1.0     0.173586     0.588688     0.518211    Uiso  ? H
   H226       1.0     0.197364     0.566953     0.523673    Uiso  ? H
   H227       1.0     0.876780     0.562428     0.401061    Uiso  ? H
   H228       1.0     0.110909     0.564408     0.410030    Uiso  ? H
   H229       1.0     0.179202     0.476135     0.415511    Uiso  ? H
   H230       1.0     0.199168     0.489510     0.439779    Uiso  ? H
   H231       1.0     0.898576     0.588737     0.569577    Uiso  ? H
   H232       1.0     0.120338     0.571475     0.588926    Uiso  ? H
   H233       1.0     0.835987     0.593975     0.528230    Uiso  ? H
   H234       1.0     0.842517     0.583662     0.497753    Uiso  ? H
   H235       1.0     0.833163     0.526495     0.588910    Uiso  ? H
   H236       1.0     0.839269     0.496971     0.603790    Uiso  ? H
   H237       1.0     0.191172     0.439719     0.499935    Uiso  ? H
   H238       1.0     0.179916     0.423796     0.527344    Uiso  ? H
   H239       1.0     0.891200     0.438032     0.587331    Uiso  ? H
   H240       1.0     0.115806     0.420990     0.570498    Uiso  ? H
   C385       1.0     0.654494     0.145552     0.617858    Uiso  ? C
   C386       1.0     0.665534     0.169808     0.605620    Uiso  ? C
   C387       1.0     0.687234     0.182981     0.617949    Uiso  ? C
   H241       1.0     0.697843     0.173821     0.634887    Uiso  ? H
   C388       1.0     0.695342     0.208420     0.610373    Uiso  ? C
   H242       1.0     0.712953     0.215027     0.619529    Uiso  ? H
   C389       1.0     0.682922     0.220168     0.588548    Uiso  ? C
   H243       1.0     0.691094     0.237665     0.581775    Uiso  ? H
   C390       1.0     0.663035     0.206085     0.575380    Uiso  ? C
   C391       1.0     0.654799     0.181550     0.583854    Uiso  ? C
   H244       1.0     0.636767     0.173627     0.574911    Uiso  ? H
   C392       1.0     0.651173     0.218042     0.550267    Uiso  ? C
   C393       1.0     0.593712     0.130558     0.668361    Uiso  ? C
   C394       1.0     0.575633     0.145926     0.684009    Uiso  ? C
   C395       1.0     0.574404     0.143308     0.711753    Uiso  ? C
   H245       1.0     0.588684     0.131307     0.723083    Uiso  ? H
   C396       1.0     0.553437     0.154806     0.725848    Uiso  ? C
   H246       1.0     0.550801     0.149518     0.746554    Uiso  ? H
   C397       1.0     0.535347     0.170739     0.711881    Uiso  ? C
   H247       1.0     0.519829     0.178583     0.721488    Uiso  ? H
   C398       1.0     0.537764     0.175926     0.684549    Uiso  ? C
   C399       1.0     0.557672     0.161998     0.670250    Uiso  ? C
   H248       1.0     0.560198     0.164114     0.649765    Uiso  ? H
   C400       1.0     0.521498     0.196507     0.671824    Uiso  ? C
   C401       1.0     0.601272     0.871886     0.661768    Uiso  ? C
   C402       1.0     0.586047     0.850411     0.675009    Uiso  ? C
   C403       1.0     0.587991     0.846510     0.702013    Uiso  ? C
   H249       1.0     0.602089     0.858855     0.713274    Uiso  ? H
   C404       1.0     0.573779     0.826089     0.713396    Uiso  ? C
   H250       1.0     0.576661     0.824521     0.734338    Uiso  ? H
   C405       1.0     0.559023     0.808774     0.697523    Uiso  ? C
   H251       1.0     0.545779     0.794706     0.706908    Uiso  ? H
   C406       1.0     0.557498     0.811640     0.670845    Uiso  ? C
   C407       1.0     0.570191     0.832965     0.660051    Uiso  ? C
   H252       1.0     0.568112     0.836878     0.639628    Uiso  ? H
   C408       1.0     0.540980     0.792833     0.653848    Uiso  ? C
   C409       1.0     0.648058     0.864453     0.615595    Uiso  ? C
   C410       1.0     0.661366     0.841465     0.602853    Uiso  ? C
   C411       1.0     0.685933     0.831351     0.613499    Uiso  ? C
   H253       1.0     0.693121     0.837991     0.634044    Uiso  ? H
   C412       1.0     0.698021     0.810036     0.601889    Uiso  ? C
   H254       1.0     0.715532     0.802745     0.610721    Uiso  ? H
   C413       1.0     0.687304     0.798985     0.578725    Uiso  ? C
   H255       1.0     0.698197     0.782456     0.569278    Uiso  ? H
   C414       1.0     0.662954     0.808058     0.568287    Uiso  ? C
   C415       1.0     0.649799     0.828787     0.580212    Uiso  ? C
   H256       1.0     0.630728     0.835631     0.572579    Uiso  ? H
   C416       1.0     0.653189     0.795240     0.543979    Uiso  ? C
   C417       1.0     0.602805     0.259720     0.472244    Uiso  ? C
   C418       1.0     0.585426     0.273293     0.452191    Uiso  ? C
   C419       1.0     0.585707     0.300888     0.449735    Uiso  ? C
   H257       1.0     0.601357     0.311267     0.459431    Uiso  ? H
   C420       1.0     0.568609     0.313870     0.432700    Uiso  ? C
   H258       1.0     0.567669     0.334574     0.431230    Uiso  ? H
   C421       1.0     0.549060     0.299553     0.419233    Uiso  ? C
   H259       1.0     0.535242     0.311106     0.406501    Uiso  ? H
   C422       1.0     0.548075     0.272387     0.420644    Uiso  ? C
   C423       1.0     0.567616     0.258868     0.436583    Uiso  ? C
   H260       1.0     0.567978     0.237627     0.439975    Uiso  ? H
   C424       1.0     0.530293     0.257237     0.402056    Uiso  ? C
   C425       1.0     0.600706     0.260944     0.545540    Uiso  ? C
   C426       1.0     0.589170     0.272606     0.570876    Uiso  ? C
   C427       1.0     0.604441     0.291034     0.586057    Uiso  ? C
   H261       1.0     0.625263     0.296833     0.579115    Uiso  ? H
   C428       1.0     0.597425     0.299307     0.610452    Uiso  ? C
   H262       1.0     0.610796     0.312267     0.622930    Uiso  ? H
   C429       1.0     0.572149     0.291903     0.620131    Uiso  ? C
   H263       1.0     0.567475     0.298881     0.640216    Uiso  ? H
   C430       1.0     0.557969     0.272252     0.606708    Uiso  ? C
   C431       1.0     0.565068     0.265250     0.580606    Uiso  ? C
   H264       1.0     0.552383     0.253214     0.569116    Uiso  ? H
   C432       1.0     0.536096     0.258243     0.618451    Uiso  ? C
   C433       1.0     0.653628     0.215745     0.466969    Uiso  ? C
   C434       1.0     0.669076     0.204526     0.444439    Uiso  ? C
   C435       1.0     0.692601     0.216449     0.434830    Uiso  ? C
   H265       1.0     0.700151     0.233821     0.443982    Uiso  ? H
   C436       1.0     0.705424     0.206661     0.411863    Uiso  ? C
   H266       1.0     0.722002     0.215911     0.404531    Uiso  ? H
   C437       1.0     0.694361     0.186206     0.397317    Uiso  ? C
   H267       1.0     0.703308     0.180551     0.379481    Uiso  ? H
   C438       1.0     0.670611     0.174764     0.405308    Uiso  ? C
   C439       1.0     0.657667     0.184643     0.428471    Uiso  ? C
   H268       1.0     0.640640     0.173748     0.437303    Uiso  ? H
   C440       1.0     0.660318     0.150465     0.391628    Uiso  ? C
   C441       1.0     0.450943     0.250304     0.621333    Uiso  ? C
   C442       1.0     0.426203     0.261914     0.609455    Uiso  ? C
   C443       1.0     0.409305     0.278602     0.623940    Uiso  ? C
   H269       1.0     0.414822     0.286234     0.644632    Uiso  ? H
   C444       1.0     0.385719     0.287772     0.613696    Uiso  ? C
   H270       1.0     0.373737     0.301562     0.625106    Uiso  ? H
   C445       1.0     0.376876     0.277371     0.590666    Uiso  ? C
   H271       1.0     0.355181     0.280747     0.586079    Uiso  ? H
   C446       1.0     0.392785     0.261544     0.574557    Uiso  ? C
   C447       1.0     0.418612     0.255009     0.583118    Uiso  ? C
   H272       1.0     0.432812     0.244968     0.569503    Uiso  ? H
   C448       1.0     0.381892     0.252784     0.548000    Uiso  ? C
   C449       1.0     0.462646     0.204301     0.666753    Uiso  ? C
   C450       1.0     0.440764     0.188815     0.678864    Uiso  ? C
   C451       1.0     0.438744     0.187174     0.706592    Uiso  ? C
   H273       1.0     0.450126     0.200544     0.719316    Uiso  ? H
   C452       1.0     0.421614     0.170057     0.718776    Uiso  ? C
   H274       1.0     0.419259     0.168938     0.740074    Uiso  ? H
   C453       1.0     0.402086     0.157546     0.705302    Uiso  ? C
   H275       1.0     0.390136     0.145176     0.715985    Uiso  ? H
   C454       1.0     0.403417     0.157709     0.678061    Uiso  ? C
   C455       1.0     0.422744     0.173162     0.663920    Uiso  ? C
   H276       1.0     0.423183     0.171191     0.642000    Uiso  ? H
   C456       1.0     0.389666     0.135661     0.662836    Uiso  ? C
   C457       1.0     0.614113     0.138649     0.347194    Uiso  ? C
   C458       1.0     0.600767     0.160538     0.332764    Uiso  ? C
   C459       1.0     0.610317     0.171555     0.308336    Uiso  ? C
   H277       1.0     0.629627     0.166048     0.299234    Uiso  ? H
   C460       1.0     0.596709     0.192235     0.296095    Uiso  ? C
   H278       1.0     0.604181     0.202067     0.278941    Uiso  ? H
   C461       1.0     0.575029     0.203900     0.308309    Uiso  ? C
   H279       1.0     0.567800     0.224025     0.300113    Uiso  ? H
   C462       1.0     0.565604     0.194172     0.332177    Uiso  ? C
   C463       1.0     0.578457     0.172518     0.344142    Uiso  ? C
   H280       1.0     0.572808     0.166425     0.363412    Uiso  ? H
   C464       1.0     0.541639     0.205782     0.345685    Uiso  ? C
   C465       1.0     0.667868     0.865312     0.393521    Uiso  ? C
   C466       1.0     0.676130     0.838887     0.403880    Uiso  ? C
   C467       1.0     0.694425     0.823581     0.388614    Uiso  ? C
   H281       1.0     0.699939     0.830619     0.368181    Uiso  ? H
   C468       1.0     0.701838     0.799004     0.397315    Uiso  ? C
   H282       1.0     0.713508     0.785115     0.385399    Uiso  ? H
   C469       1.0     0.694921     0.789680     0.421852    Uiso  ? C
   H283       1.0     0.699302     0.769368     0.427221    Uiso  ? H
   C470       1.0     0.676998     0.804497     0.437771    Uiso  ? C
   C471       1.0     0.669494     0.829478     0.429046    Uiso  ? C
   H284       1.0     0.657056     0.842307     0.440940    Uiso  ? H
   C472       1.0     0.663886     0.792841     0.461434    Uiso  ? C
   C473       1.0     0.609845     0.747056     0.534864    Uiso  ? C
   C474       1.0     0.593111     0.732867     0.554344    Uiso  ? C
   C475       1.0     0.595939     0.705132     0.557325    Uiso  ? C
   H285       1.0     0.604563     0.693347     0.542642    Uiso  ? H
   C476       1.0     0.582585     0.692265     0.577014    Uiso  ? C
   H286       1.0     0.586168     0.669967     0.577073    Uiso  ? H
   C477       1.0     0.563974     0.705187     0.592363    Uiso  ? C
   H287       1.0     0.551699     0.696031     0.607758    Uiso  ? H
   C478       1.0     0.557939     0.732163     0.588678    Uiso  ? C
   C479       1.0     0.573678     0.746037     0.568694    Uiso  ? C
   H288       1.0     0.569978     0.767301     0.567996    Uiso  ? H
   C480       1.0     0.536559     0.745926     0.603816    Uiso  ? C
   O217       1.0     0.641784     0.130048     0.603294    Uiso  ? O
   O218       1.0     0.655889     0.141333     0.641721    Uiso  ? O
   O219       1.0     0.588587     0.127000     0.644124    Uiso  ? O
   O220       1.0     0.613925     0.118520     0.679511    Uiso  ? O
   O221       1.0     0.602298     0.873506     0.636273    Uiso  ? O
   O222       1.0     0.616584     0.887596     0.675399    Uiso  ? O
   O223       1.0     0.622909     0.869006     0.612035    Uiso  ? O
   O224       1.0     0.662046     0.877484     0.631902    Uiso  ? O
   O225       1.0     0.605044     0.234561     0.472721    Uiso  ? O
   O226       1.0     0.616926     0.274401     0.486759    Uiso  ? O
   O227       1.0     0.587792     0.243660     0.531694    Uiso  ? O
   O228       1.0     0.625212     0.265046     0.541459    Uiso  ? O
   O229       1.0     0.641218     0.202998     0.533041    Uiso  ? O
   O230       1.0     0.650623     0.243055     0.545716    Uiso  ? O
   O231       1.0     0.628163     0.211202     0.470620    Uiso  ? O
   O232       1.0     0.665526     0.230714     0.482892    Uiso  ? O
   O233       1.0     0.457458     0.226745     0.615340    Uiso  ? O
   O234       1.0     0.466751     0.262961     0.637676    Uiso  ? O
   O235       1.0     0.465109     0.204696     0.641816    Uiso  ? O
   O236       1.0     0.477262     0.219780     0.680886    Uiso  ? O
   O237       1.0     0.519125     0.194412     0.646919    Uiso  ? O
   O238       1.0     0.509071     0.214523     0.684703    Uiso  ? O
   O239       1.0     0.518070     0.249825     0.604048    Uiso  ? O
   O240       1.0     0.533177     0.257198     0.643388    Uiso  ? O
   O241       1.0     0.611524     0.136894     0.372093    Uiso  ? O
   O242       1.0     0.631209     0.125304     0.334857    Uiso  ? O
   O243       1.0     0.636334     0.144481     0.395398    Uiso  ? O
   O244       1.0     0.676444     0.133799     0.380692    Uiso  ? O
   O245       1.0     0.656656     0.881778     0.408706    Uiso  ? O
   O246       1.0     0.666123     0.869119     0.368161    Uiso  ? O
   O247       1.0     0.602884     0.881025     0.371961    Uiso  ? O
   O248       1.0     0.639040     0.872879     0.347997    Uiso  ? O
   O249       1.0     0.651622     0.807884     0.477053    Uiso  ? O
   O250       1.0     0.661748     0.767580     0.464847    Uiso  ? O
   O251       1.0     0.627862     0.795302     0.539275    Uiso  ? O
   O252       1.0     0.668969     0.782911     0.528260    Uiso  ? O
   O253       1.0     0.609006     0.771425     0.532044    Uiso  ? O
   O254       1.0     0.625977     0.733581     0.521980    Uiso  ? O
   O255       1.0     0.598785     0.772734     0.471718    Uiso  ? O
   O256       1.0     0.634065     0.747730     0.462853    Uiso  ? O
   O257       1.0     0.466339     0.200107     0.369585    Uiso  ? O
   O258       1.0     0.472800     0.227111     0.336022    Uiso  ? O
   O259       1.0     0.465248     0.220554     0.395834    Uiso  ? O
   O260       1.0     0.480995     0.260429     0.386074    Uiso  ? O
   O261       1.0     0.527992     0.233490     0.405051    Uiso  ? O
   O262       1.0     0.514253     0.269105     0.386410    Uiso  ? O
   O263       1.0     0.529323     0.191396     0.361934    Uiso  ? O
   O264       1.0     0.535728     0.229649     0.342706    Uiso  ? O
   O265       1.0     0.582504     0.105385     0.581842    Uiso  ? O
   O266       1.0     0.586913     0.183162     0.511548    Uiso  ? O
   O267       1.0     0.502937     0.193297     0.583929    Uiso  ? O
   O268       1.0     0.603574     0.106416     0.435273    Uiso  ? O
   O269       1.0     0.599357     0.832829     0.498742    Uiso  ? O
   O270       1.0     0.512781     0.180597     0.421407    Uiso  ? O
   Zn49       1.0     0.608784     0.106777     0.614347    Uiso  ? Zn
   Zn50       1.0     0.650350     0.106867     0.660563    Uiso  ? Zn
   Zn51       1.0     0.611103     0.214703     0.508062    Uiso  ? Zn
   Zn52       1.0     0.649535     0.261906     0.507208    Uiso  ? Zn
   Zn53       1.0     0.497942     0.216247     0.618303    Uiso  ? Zn
   Zn54       1.0     0.496308     0.250346     0.663867    Uiso  ? Zn
   Zn55       1.0     0.623958     0.104913     0.398634    Uiso  ? Zn
   Zn56       1.0     0.663130     0.106218     0.350448    Uiso  ? Zn
   Zn57       1.0     0.619416     0.795056     0.498044    Uiso  ? Zn
   Zn58       1.0     0.657176     0.750357     0.501062    Uiso  ? Zn
   Zn59       1.0     0.503485     0.205673     0.390246    Uiso  ? Zn
   Zn60       1.0     0.503067     0.251458     0.351065    Uiso  ? Zn
   C481       1.0     0.338678     0.865745     0.391231    Uiso  ? C
   C482       1.0     0.325689     0.844645     0.405987    Uiso  ? C
   C483       1.0     0.299828     0.836363     0.398939    Uiso  ? C
   H289       1.0     0.288250     0.847848     0.384438    Uiso  ? H
   C484       1.0     0.290016     0.812655     0.410374    Uiso  ? C
   H290       1.0     0.272276     0.804304     0.402294    Uiso  ? H
   C485       1.0     0.305516     0.799746     0.429669    Uiso  ? C
   H291       1.0     0.299065     0.780830     0.436745    Uiso  ? H
   C486       1.0     0.329759     0.808857     0.437481    Uiso  ? C
   C487       1.0     0.341133     0.830663     0.424823    Uiso  ? C
   H292       1.0     0.360976     0.837455     0.428451    Uiso  ? H
   C488       1.0     0.344626     0.794926     0.458153    Uiso  ? C
   C489       1.0     0.387379     0.864283     0.344356    Uiso  ? C
   C490       1.0     0.404554     0.845984     0.329077    Uiso  ? C
   C491       1.0     0.402153     0.844722     0.300956    Uiso  ? C
   H293       1.0     0.386894     0.857645     0.291569    Uiso  ? H
   C492       1.0     0.418899     0.828467     0.286486    Uiso  ? C
   H294       1.0     0.417146     0.829606     0.264597    Uiso  ? H
   C493       1.0     0.438257     0.813482     0.299126    Uiso  ? C
   H295       1.0     0.451779     0.802664     0.286907    Uiso  ? H
   C494       1.0     0.440378     0.814018     0.327295    Uiso  ? C
   C495       1.0     0.423505     0.829539     0.342156    Uiso  ? C
   H296       1.0     0.423640     0.830322     0.363580    Uiso  ? H
   C496       1.0     0.461780     0.799574     0.341092    Uiso  ? C
   C497       1.0     0.383997     0.145340     0.345234    Uiso  ? C
   C498       1.0     0.397419     0.168831     0.334527    Uiso  ? C
   C499       1.0     0.385326     0.182924     0.313214    Uiso  ? C
   H297       1.0     0.365186     0.177641     0.307353    Uiso  ? H
   C500       1.0     0.396788     0.206591     0.304147    Uiso  ? C
   H298       1.0     0.386882     0.215959     0.288005    Uiso  ? H
   C501       1.0     0.421047     0.214953     0.315910    Uiso  ? C
   H299       1.0     0.431831     0.230938     0.306788    Uiso  ? H
   C502       1.0     0.432458     0.201504     0.336560    Uiso  ? C
   C503       1.0     0.420111     0.178148     0.346678    Uiso  ? C
   H300       1.0     0.430737     0.165779     0.360350    Uiso  ? H
   C504       1.0     0.459622     0.208322     0.346886    Uiso  ? C
   C505       1.0     0.340363     0.138985     0.396468    Uiso  ? C
   C506       1.0     0.324893     0.156884     0.412641    Uiso  ? C
   C507       1.0     0.298667     0.163778     0.405290    Uiso  ? C
   H301       1.0     0.289361     0.154741     0.387263    Uiso  ? H
   C508       1.0     0.283847     0.180634     0.420213    Uiso  ? C
   H302       1.0     0.263359     0.184289     0.415974    Uiso  ? H
   C509       1.0     0.295747     0.193097     0.441698    Uiso  ? C
   H303       1.0     0.285041     0.206637     0.454889    Uiso  ? H
   C510       1.0     0.322803     0.187654     0.448985    Uiso  ? C
   C511       1.0     0.336641     0.169130     0.434425    Uiso  ? C
   H304       1.0     0.355750     0.164087     0.442184    Uiso  ? H
   C512       1.0     0.336621     0.203219     0.469974    Uiso  ? C
   C513       1.0     0.403982     0.746191     0.524506    Uiso  ? C
   C514       1.0     0.426694     0.731329     0.536825    Uiso  ? C
   C515       1.0     0.428110     0.703650     0.537222    Uiso  ? C
   H305       1.0     0.416533     0.693841     0.521798    Uiso  ? H
   C516       1.0     0.444148     0.689806     0.553810    Uiso  ? C
   H306       1.0     0.445115     0.667856     0.551899    Uiso  ? H
   C517       1.0     0.459579     0.703460     0.572192    Uiso  ? C
   H307       1.0     0.471933     0.692898     0.586139    Uiso  ? H
   C518       1.0     0.459420     0.730978     0.572854    Uiso  ? C
   C519       1.0     0.442051     0.745256     0.554702    Uiso  ? C
   H308       1.0     0.438394     0.765594     0.556807    Uiso  ? H
   C520       1.0     0.473852     0.746563     0.592150    Uiso  ? C
   C521       1.0     0.391212     0.750474     0.459312    Uiso  ? C
   C522       1.0     0.404333     0.738952     0.437275    Uiso  ? C
   C523       1.0     0.397524     0.712872     0.431436    Uiso  ? C
   H309       1.0     0.381275     0.703955     0.442155    Uiso  ? H
   C524       1.0     0.407124     0.700588     0.409684    Uiso  ? C
   H310       1.0     0.397469     0.681198     0.405937    Uiso  ? H
   C525       1.0     0.426955     0.712175     0.393774    Uiso  ? C
   H311       1.0     0.436968     0.698654     0.380077    Uiso  ? H
   C526       1.0     0.435710     0.738681     0.400260    Uiso  ? C
   C527       1.0     0.421628     0.751536     0.420753    Uiso  ? C
   H312       1.0     0.425905     0.772525     0.425992    Uiso  ? H
   C528       1.0     0.458754     0.750935     0.386133    Uiso  ? C
   C529       1.0     0.339074     0.791622     0.539214    Uiso  ? C
   C530       1.0     0.326968     0.805152     0.562090    Uiso  ? C
   C531       1.0     0.307669     0.792174     0.575151    Uiso  ? C
   H313       1.0     0.300222     0.773377     0.568295    Uiso  ? H
   C532       1.0     0.297563     0.801485     0.599371    Uiso  ? C
   H314       1.0     0.281237     0.790891     0.610241    Uiso  ? H
   C533       1.0     0.308896     0.823552     0.611384    Uiso  ? C
   H315       1.0     0.301016     0.831189     0.630031    Uiso  ? H
   C534       1.0     0.331011     0.836173     0.599118    Uiso  ? C
   C535       1.0     0.339210     0.827379     0.573078    Uiso  ? C
   H316       1.0     0.356106     0.838612     0.563615    Uiso  ? H
   C536       1.0     0.344693     0.858648     0.612189    Uiso  ? C
   C537       1.0     0.536640     0.752187     0.388825    Uiso  ? C
   C538       1.0     0.561440     0.740797     0.400933    Uiso  ? C
   C539       1.0     0.572684     0.719051     0.389621    Uiso  ? C
   H317       1.0     0.561450     0.708500     0.374158    Uiso  ? H
   C540       1.0     0.596730     0.709042     0.398979    Uiso  ? C
   H318       1.0     0.604092     0.691149     0.388863    Uiso  ? H
   C541       1.0     0.609328     0.720687     0.419129    Uiso  ? C
   H319       1.0     0.629027     0.712547     0.425919    Uiso  ? H
   C542       1.0     0.598091     0.743907     0.432536    Uiso  ? C
   C543       1.0     0.574021     0.752766     0.422642    Uiso  ? C
   H320       1.0     0.564900     0.770386     0.431503    Uiso  ? H
   C544       1.0     0.610881     0.755931     0.457287    Uiso  ? C
   C545       1.0     0.539963     0.800456     0.345123    Uiso  ? C
   C546       1.0     0.565569     0.811185     0.337880    Uiso  ? C
   C547       1.0     0.579597     0.799669     0.316602    Uiso  ? C
   H321       1.0     0.571236     0.783133     0.306409    Uiso  ? H
   C548       1.0     0.605572     0.807332     0.311261    Uiso  ? C
   H322       1.0     0.617316     0.796544     0.295830    Uiso  ? H
   C549       1.0     0.618081     0.828222     0.324033    Uiso  ? C
   H323       1.0     0.638925     0.831565     0.319692    Uiso  ? H
   C550       1.0     0.602979     0.843320     0.342924    Uiso  ? C
   C551       1.0     0.576824     0.834373     0.349206    Uiso  ? C
   H324       1.0     0.564287     0.845284     0.361491    Uiso  ? H
   C552       1.0     0.615061     0.867028     0.354833    Uiso  ? C
   C553       1.0     0.389476     0.854733     0.653274    Uiso  ? C
   C554       1.0     0.400529     0.829739     0.664618    Uiso  ? C
   C555       1.0     0.385067     0.814692     0.681859    Uiso  ? C
   H325       1.0     0.364106     0.819319     0.686928    Uiso  ? H
   C556       1.0     0.394446     0.789563     0.690048    Uiso  ? C
   H326       1.0     0.382260     0.777088     0.703166    Uiso  ? H
   C557       1.0     0.419201     0.780931     0.682614    Uiso  ? C
   H327       1.0     0.424989     0.761956     0.689814    Uiso  ? H
   C558       1.0     0.435645     0.797329     0.667409    Uiso  ? C
   C559       1.0     0.425025     0.821008     0.656350    Uiso  ? C
   H328       1.0     0.433487     0.830752     0.639500    Uiso  ? H
   C560       1.0     0.461040     0.785271     0.657304    Uiso  ? C
   C561       1.0     0.335707     0.120374     0.599059    Uiso  ? C
   C562       1.0     0.320399     0.137486     0.581101    Uiso  ? C
   C563       1.0     0.291582     0.136962     0.579239    Uiso  ? C
   H329       1.0     0.281545     0.124361     0.591313    Uiso  ? H
   C564       1.0     0.278397     0.154433     0.561884    Uiso  ? C
   H330       1.0     0.257957     0.152815     0.560927    Uiso  ? H
   C565       1.0     0.292510     0.173801     0.547057    Uiso  ? C
   H331       1.0     0.281587     0.187319     0.534585    Uiso  ? H
   C566       1.0     0.320176     0.174133     0.547486    Uiso  ? C
   C567       1.0     0.333436     0.155895     0.564442    Uiso  ? C
   H332       1.0     0.354469     0.157542     0.567019    Uiso  ? H
   C568       1.0     0.336136     0.192784     0.531783    Uiso  ? C
   C569       1.0     0.384671     0.247668     0.461239    Uiso  ? C
   C570       1.0     0.402086     0.260830     0.440873    Uiso  ? C
   C571       1.0     0.397546     0.287336     0.433194    Uiso  ? C
   H333       1.0     0.380871     0.297012     0.440976    Uiso  ? H
   C572       1.0     0.412664     0.298943     0.413274    Uiso  ? C
   H334       1.0     0.408912     0.319054     0.406408    Uiso  ? H
   C573       1.0     0.435039     0.285812     0.403077    Uiso  ? C
   H335       1.0     0.446265     0.296368     0.389179    Uiso  ? H
   C574       1.0     0.439961     0.258968     0.409122    Uiso  ? C
   C575       1.0     0.421272     0.246051     0.426441    Uiso  ? C
   H336       1.0     0.421814     0.225663     0.430075    Uiso  ? H
   C576       1.0     0.463618     0.245857     0.397299    Uiso  ? C
   O271       1.0     0.363872     0.868037     0.391098    Uiso  ? O
   O272       1.0     0.325623     0.881413     0.376995    Uiso  ? O
   O273       1.0     0.388864     0.865551     0.370430    Uiso  ? O
   O274       1.0     0.374051     0.882311     0.331558    Uiso  ? O
   O275       1.0     0.398446     0.125796     0.352824    Uiso  ? O
   O276       1.0     0.358543     0.143716     0.347186    Uiso  ? O
   O277       1.0     0.354303     0.120961     0.407177    Uiso  ? O
   O278       1.0     0.338516     0.139804     0.371820    Uiso  ? O
   O279       1.0     0.405980     0.771423     0.521752    Uiso  ? O
   O280       1.0     0.385595     0.734470     0.511466    Uiso  ? O
   O281       1.0     0.390734     0.775725     0.462101    Uiso  ? O
   O282       1.0     0.382311     0.735647     0.477892    Uiso  ? O
   O283       1.0     0.369800     0.799159     0.460497    Uiso  ? O
   O284       1.0     0.333140     0.777286     0.471546    Uiso  ? O
   O285       1.0     0.350606     0.806610     0.522433    Uiso  ? O
   O286       1.0     0.338694     0.766794     0.537038    Uiso  ? O
   O287       1.0     0.520195     0.765843     0.403061    Uiso  ? O
   O288       1.0     0.535244     0.751894     0.363279    Uiso  ? O
   O289       1.0     0.524003     0.814759     0.359207    Uiso  ? O
   O290       1.0     0.536108     0.775531     0.342506    Uiso  ? O
   O291       1.0     0.464528     0.801325     0.366351    Uiso  ? O
   O292       1.0     0.476710     0.785034     0.327115    Uiso  ? O
   O293       1.0     0.462979     0.775296     0.389638    Uiso  ? O
   O294       1.0     0.474093     0.736962     0.372689    Uiso  ? O
   O295       1.0     0.400934     0.867515     0.634675    Uiso  ? O
   O296       1.0     0.366966     0.862248     0.659715    Uiso  ? O
   O297       1.0     0.359321     0.874677     0.598414    Uiso  ? O
   O298       1.0     0.340644     0.862358     0.636408    Uiso  ? O
   O299       1.0     0.355373     0.106966     0.590199    Uiso  ? O
   O300       1.0     0.331892     0.119499     0.624126    Uiso  ? O
   O301       1.0     0.392457     0.133622     0.638038    Uiso  ? O
   O302       1.0     0.375501     0.118835     0.675284    Uiso  ? O
   O303       1.0     0.361414     0.188467     0.528618    Uiso  ? O
   O304       1.0     0.326683     0.213495     0.521837    Uiso  ? O
   O305       1.0     0.361783     0.202542     0.470476    Uiso  ? O
   O306       1.0     0.322919     0.217325     0.485525    Uiso  ? O
   O307       1.0     0.388752     0.223041     0.465019    Uiso  ? O
   O308       1.0     0.372148     0.261508     0.478261    Uiso  ? O
   O309       1.0     0.396798     0.241111     0.531171    Uiso  ? O
   O310       1.0     0.357228     0.253620     0.543477    Uiso  ? O
   O311       1.0     0.538672     0.795810     0.628945    Uiso  ? O
   O312       1.0     0.524149     0.778198     0.665362    Uiso  ? O
   O313       1.0     0.536988     0.771071     0.605337    Uiso  ? O
   O314       1.0     0.519319     0.731453     0.616295    Uiso  ? O
   O315       1.0     0.477307     0.771860     0.589424    Uiso  ? O
   O316       1.0     0.483695     0.734179     0.611869    Uiso  ? O
   O317       1.0     0.478635     0.800595     0.647956    Uiso  ? O
   O318       1.0     0.462536     0.760738     0.653294    Uiso  ? O
   O319       1.0     0.412104     0.107693     0.413648    Uiso  ? O
   O320       1.0     0.403622     0.827830     0.502676    Uiso  ? O
   O321       1.0     0.497317     0.822891     0.414047    Uiso  ? O
   O322       1.0     0.420151     0.105586     0.590769    Uiso  ? O
   O323       1.0     0.420398     0.186154     0.510899    Uiso  ? O
   O324       1.0     0.492693     0.830125     0.602443    Uiso  ? O
   Zn61       1.0     0.384629     0.101881     0.385609    Uiso  ? Zn
   Zn62       1.0     0.343067     0.104996     0.347499    Uiso  ? Zn
   Zn63       1.0     0.382608     0.795537     0.499046    Uiso  ? Zn
   Zn64       1.0     0.347188     0.748990     0.499355    Uiso  ? Zn
   Zn65       1.0     0.499117     0.794906     0.386681    Uiso  ? Zn
   Zn66       1.0     0.498757     0.753983     0.342124    Uiso  ? Zn
   Zn67       1.0     0.388328     0.101253     0.614452    Uiso  ? Zn
   Zn68       1.0     0.347041     0.900000     0.654948    Uiso  ? Zn
   Zn69       1.0     0.386740     0.210197     0.505277    Uiso  ? Zn
   Zn70       1.0     0.340973     0.250221     0.505855    Uiso  ? Zn
   Zn71       1.0     0.499651     0.792918     0.616054    Uiso  ? Zn
   Zn72       1.0     0.500245     0.746625     0.650183    Uiso  ? Zn
   H337       1.0     0.399605     0.838076     0.517080    Uiso  ? H
   H338       1.0     0.416733     0.831891     0.489716    Uiso  ? H
   H339       1.0     0.580958     0.175658     0.495112    Uiso  ? H
   H340       1.0     0.581274     0.173422     0.527484    Uiso  ? H
   H341       1.0     0.528319     0.169251     0.420359    Uiso  ? H
   H342       1.0     0.504080     0.183069     0.438197    Uiso  ? H
   H343       1.0     0.590591     0.120118     0.438393    Uiso  ? H
   H344       1.0     0.608620     0.896212     0.450015    Uiso  ? H
   H345       1.0     0.501301     0.847096     0.605905    Uiso  ? H
   H346       1.0     0.474975     0.828546     0.595708    Uiso  ? H
   H347       1.0     0.593431     0.897668     0.568334    Uiso  ? H
   H348       1.0     0.570318     0.119111     0.576757    Uiso  ? H
   H349       1.0     0.603713     0.849139     0.507914    Uiso  ? H
   H350       1.0     0.583135     0.833920     0.488250    Uiso  ? H
   H351       1.0     0.436190     0.111154     0.599304    Uiso  ? H
   H352       1.0     0.420532     0.100688     0.572686    Uiso  ? H
   H353       1.0     0.504414     0.202563     0.567033    Uiso  ? H
   H354       1.0     0.510469     0.175938     0.585529    Uiso  ? H
   H355       1.0     0.417601     0.167684     0.515272    Uiso  ? H
   H356       1.0     0.437059     0.193594     0.516275    Uiso  ? H
   H357       1.0     0.512793     0.825587     0.424796    Uiso  ? H
   H358       1.0     0.485265     0.837028     0.411365    Uiso  ? H
   H359       1.0     0.413756     0.896746     0.429126    Uiso  ? H
   H360       1.0     0.425118     0.120862     0.411588    Uiso  ? H
   C577       1.0     0.655432     0.398438     0.135848    Uiso  ? C
   C578       1.0     0.671982     0.416818     0.153597    Uiso  ? C
   C579       1.0     0.699073     0.413663     0.157410    Uiso  ? C
   H361       1.0     0.709715     0.399848     0.144508    Uiso  ? H
   C580       1.0     0.712076     0.430292     0.175323    Uiso  ? C
   H362       1.0     0.732412     0.427212     0.181310    Uiso  ? H
   C581       1.0     0.698784     0.451645     0.188188    Uiso  ? C
   H363       1.0     0.710694     0.462093     0.203113    Uiso  ? H
   C582       1.0     0.671452     0.453655     0.185900    Uiso  ? C
   C583       1.0     0.658080     0.435522     0.169050    Uiso  ? C
   H364       1.0     0.635666     0.436962     0.167773    Uiso  ? H
   C584       1.0     0.655711     0.473181     0.202411    Uiso  ? C
   C585       1.0     0.605259     0.333154     0.137734    Uiso  ? C
   C586       1.0     0.592745     0.320947     0.160646    Uiso  ? C
   C587       1.0     0.606895     0.300179     0.174134    Uiso  ? C
   H365       1.0     0.624312     0.292185     0.163729    Uiso  ? H
   C588       1.0     0.598871     0.292587     0.199386    Uiso  ? C
   H366       1.0     0.611411     0.278342     0.208051    Uiso  ? H
   C589       1.0     0.575945     0.303046     0.211175    Uiso  ? C
   H367       1.0     0.571546     0.295746     0.229943    Uiso  ? H
   C590       1.0     0.560770     0.322067     0.197196    Uiso  ? C
   C591       1.0     0.569691     0.330835     0.171543    Uiso  ? C
   H368       1.0     0.559650     0.346994     0.161017    Uiso  ? H
   C592       1.0     0.540685     0.335559     0.210791    Uiso  ? C
   C593       1.0     0.616455     0.353144     0.853796    Uiso  ? C
   C594       1.0     0.607601     0.346040     0.827767    Uiso  ? C
   C595       1.0     0.621647     0.326272     0.811992    Uiso  ? C
   H369       1.0     0.639111     0.316744     0.821186    Uiso  ? H
   C596       1.0     0.612376     0.320815     0.787060    Uiso  ? C
   H370       1.0     0.622217     0.305981     0.775609    Uiso  ? H
   C597       1.0     0.588163     0.331530     0.777494    Uiso  ? C
   H371       1.0     0.580386     0.324971     0.760048    Uiso  ? H
   C598       1.0     0.574440     0.349870     0.792598    Uiso  ? C
   C599       1.0     0.584055     0.358569     0.817893    Uiso  ? C
   H372       1.0     0.573419     0.375141     0.829678    Uiso  ? H
   C600       1.0     0.548223     0.360080     0.783907    Uiso  ? C
   C601       1.0     0.656409     0.396901     0.873331    Uiso  ? C
   C602       1.0     0.670661     0.413724     0.853578    Uiso  ? C
   C603       1.0     0.698735     0.412712     0.851893    Uiso  ? C
   H373       1.0     0.710569     0.400960     0.864297    Uiso  ? H
   C604       1.0     0.713287     0.426593     0.832950    Uiso  ? C
   H374       1.0     0.734796     0.425300     0.832647    Uiso  ? H
   C605       1.0     0.699710     0.444372     0.816785    Uiso  ? C
   H375       1.0     0.711030     0.454717     0.801875    Uiso  ? H
   C606       1.0     0.672045     0.447357     0.819430    Uiso  ? C
   C607       1.0     0.657167     0.429762     0.835891    Uiso  ? C
   H376       1.0     0.635755     0.429473     0.835201    Uiso  ? H
   C608       1.0     0.656977     0.465635     0.802439    Uiso  ? C
   C609       1.0     0.613818     0.549066     0.257152    Uiso  ? C
   C610       1.0     0.603281     0.573900     0.269680    Uiso  ? C
   C611       1.0     0.614764     0.586352     0.291015    Uiso  ? C
   H377       1.0     0.631506     0.576810     0.300051    Uiso  ? H
   C612       1.0     0.602888     0.607805     0.303182    Uiso  ? C
   H378       1.0     0.611344     0.616172     0.320568    Uiso  ? H
   C613       1.0     0.580060     0.618754     0.291369    Uiso  ? C
   H379       1.0     0.570488     0.635838     0.301632    Uiso  ? H
   C614       1.0     0.569499     0.608055     0.267452    Uiso  ? C
   C615       1.0     0.580255     0.585226     0.259267    Uiso  ? C
   H380       1.0     0.571698     0.575475     0.242669    Uiso  ? H
   C616       1.0     0.546148     0.618560     0.254161    Uiso  ? C
   C617       1.0     0.602787     0.466998     0.262372    Uiso  ? C
   C618       1.0     0.587786     0.447206     0.275886    Uiso  ? C
   C619       1.0     0.593651     0.439791     0.302215    Uiso  ? C
   H381       1.0     0.611635     0.447194     0.311785    Uiso  ? H
   C620       1.0     0.578562     0.421276     0.316460    Uiso  ? C
   H382       1.0     0.583691     0.415210     0.335459    Uiso  ? H
   C621       1.0     0.556952     0.408985     0.303932    Uiso  ? C
   H383       1.0     0.545357     0.395499     0.314181    Uiso  ? H
   C622       1.0     0.551416     0.415243     0.276612    Uiso  ? C
   C623       1.0     0.564360     0.436564     0.264965    Uiso  ? C
   H384       1.0     0.560224     0.441039     0.244332    Uiso  ? H
   C624       1.0     0.531881     0.399039     0.262238    Uiso  ? C
   C625       1.0     0.653721     0.538280     0.209574    Uiso  ? C
   C626       1.0     0.667769     0.558402     0.192533    Uiso  ? C
   C627       1.0     0.695166     0.563128     0.194821    Uiso  ? C
   H385       1.0     0.705784     0.552603     0.208823    Uiso  ? H
   C628       1.0     0.707428     0.583998     0.181247    Uiso  ? C
   H386       1.0     0.728870     0.587327     0.182775    Uiso  ? H
   C629       1.0     0.693786     0.597801     0.162165    Uiso  ? C
   H387       1.0     0.705147     0.609896     0.148079    Uiso  ? H
   C630       1.0     0.665682     0.593852     0.159331    Uiso  ? C
   C631       1.0     0.653579     0.573303     0.174061    Uiso  ? C
   H388       1.0     0.631866     0.570415     0.171236    Uiso  ? H
   C632       1.0     0.652135     0.606941     0.138215    Uiso  ? C
   C633       1.0     0.468622     0.396970     0.255894    Uiso  ? C
   C634       1.0     0.446874     0.412836     0.270280    Uiso  ? C
   C635       1.0     0.443066     0.408572     0.297332    Uiso  ? C
   H389       1.0     0.453069     0.394417     0.308857    Uiso  ? H
   C636       1.0     0.422677     0.422143     0.311247    Uiso  ? C
   H390       1.0     0.419975     0.421328     0.332675    Uiso  ? H
   C637       1.0     0.406332     0.439537     0.298172    Uiso  ? C
   H391       1.0     0.390862     0.451495     0.307575    Uiso  ? H
   C638       1.0     0.410369     0.444603     0.270250    Uiso  ? C
   C639       1.0     0.430765     0.431121     0.256777    Uiso  ? C
   H392       1.0     0.433682     0.435512     0.236370    Uiso  ? H
   C640       1.0     0.393262     0.465042     0.256209    Uiso  ? C
   C641       1.0     0.458024     0.346391     0.217991    Uiso  ? C
   C642       1.0     0.432614     0.336677     0.207247    Uiso  ? C
   C643       1.0     0.418149     0.317832     0.222203    Uiso  ? C
   H393       1.0     0.424908     0.309933     0.240749    Uiso  ? H
   C644       1.0     0.394067     0.308666     0.212159    Uiso  ? C
   H394       1.0     0.384612     0.293596     0.223645    Uiso  ? H
   C645       1.0     0.386046     0.316600     0.186585    Uiso  ? C
   H395       1.0     0.367895     0.309481     0.178624    Uiso  ? H
   C646       1.0     0.401441     0.335015     0.171596    Uiso  ? C
   C647       1.0     0.424920     0.344860     0.181880    Uiso  ? C
   H396       1.0     0.437439     0.357978     0.169802    Uiso  ? H
   C648       1.0     0.391596     0.344407     0.146618    Uiso  ? C
   C649       1.0     0.606676     0.651304     0.128922    Uiso  ? C
   C650       1.0     0.587930     0.665366     0.147446    Uiso  ? C
   C651       1.0     0.584718     0.692761     0.144850    Uiso  ? C
   H397       1.0     0.593728     0.703800     0.130049    Uiso  ? H
   C652       1.0     0.570458     0.707846     0.162400    Uiso  ? C
   H398       1.0     0.570314     0.729155     0.159635    Uiso  ? H
   C653       1.0     0.552812     0.694338     0.179674    Uiso  ? C
   H399       1.0     0.535794     0.704884     0.188321    Uiso  ? H
   C654       1.0     0.554780     0.667274     0.183708    Uiso  ? C
   C655       1.0     0.573241     0.652420     0.167610    Uiso  ? C
   H400       1.0     0.573673     0.632596     0.171241    Uiso  ? H
   C656       1.0     0.537665     0.652918     0.203169    Uiso  ? C
   C657       1.0     0.665846     0.603729     0.859504    Uiso  ? C
   C658       1.0     0.677186     0.589997     0.836623    Uiso  ? C
   C659       1.0     0.700997     0.596673     0.825107    Uiso  ? C
   H401       1.0     0.710533     0.614161     0.832398    Uiso  ? H
   C660       1.0     0.713546     0.579771     0.806814    Uiso  ? C
   H402       1.0     0.733338     0.584431     0.798405    Uiso  ? H
   C661       1.0     0.700064     0.557625     0.799426    Uiso  ? C
   H403       1.0     0.707226     0.544756     0.784174    Uiso  ? H
   C662       1.0     0.674866     0.552322     0.810434    Uiso  ? C
   C663       1.0     0.664230     0.567778     0.828701    Uiso  ? C
   H404       1.0     0.644290     0.563919     0.835592    Uiso  ? H
   C664       1.0     0.660689     0.528916     0.800647    Uiso  ? C
   C665       1.0     0.606603     0.467406     0.738100    Uiso  ? C
   C666       1.0     0.590933     0.446342     0.724837    Uiso  ? C
   C667       1.0     0.600469     0.433518     0.701473    Uiso  ? C
   H405       1.0     0.617375     0.442012     0.691737    Uiso  ? H
   C668       1.0     0.585829     0.414375     0.687176    Uiso  ? C
   H406       1.0     0.591702     0.405500     0.668925    Uiso  ? H
   C669       1.0     0.563824     0.403767     0.700112    Uiso  ? C
   H407       1.0     0.553596     0.389409     0.687908    Uiso  ? H
   C670       1.0     0.556046     0.412955     0.724742    Uiso  ? C
   C671       1.0     0.568102     0.435803     0.735651    Uiso  ? C
   H408       1.0     0.562119     0.442556     0.754511    Uiso  ? H
   C672       1.0     0.535600     0.399310     0.739039    Uiso  ? C
   O325       1.0     0.631425     0.402693     0.133269    Uiso  ? O
   O326       1.0     0.666360     0.379944     0.122724    Uiso  ? O
   O327       1.0     0.590863     0.343364     0.119794    Uiso  ? O
   O328       1.0     0.630754     0.336491     0.136093    Uiso  ? O
   O329       1.0     0.608842     0.376217     0.862469    Uiso  ? O
   O330       1.0     0.633788     0.339258     0.866273    Uiso  ? O
   O331       1.0     0.631344     0.398078     0.874502    Uiso  ? O
   O332       1.0     0.670400     0.381566     0.889289    Uiso  ? O
   O333       1.0     0.609528     0.544606     0.233118    Uiso  ? O
   O334       1.0     0.628440     0.534029     0.271023    Uiso  ? O
   O335       1.0     0.590804     0.483040     0.247629    Uiso  ? O
   O336       1.0     0.628355     0.466949     0.263208    Uiso  ? O
   O337       1.0     0.631943     0.476760     0.196622    Uiso  ? O
   O338       1.0     0.666287     0.488719     0.219425    Uiso  ? O
   O339       1.0     0.629021     0.537588     0.210873    Uiso  ? O
   O340       1.0     0.666867     0.519226     0.221245    Uiso  ? O
   O341       1.0     0.469783     0.395618     0.229833    Uiso  ? O
   O342       1.0     0.483552     0.382743     0.270163    Uiso  ? O
   O343       1.0     0.465912     0.369555     0.209065    Uiso  ? O
   O344       1.0     0.471585     0.334075     0.235238    Uiso  ? O
   O345       1.0     0.527011     0.352835     0.196585    Uiso  ? O
   O346       1.0     0.535942     0.332849     0.234294    Uiso  ? O
   O347       1.0     0.531325     0.402283     0.236708    Uiso  ? O
   O348       1.0     0.517985     0.380804     0.274292    Uiso  ? O
   O349       1.0     0.606282     0.625509     0.128268    Uiso  ? O
   O350       1.0     0.620963     0.663878     0.112386    Uiso  ? O
   O351       1.0     0.627140     0.604170     0.134839    Uiso  ? O
   O352       1.0     0.665128     0.623000     0.122888    Uiso  ? O
   O353       1.0     0.649640     0.590978     0.873578    Uiso  ? O
   O354       1.0     0.668192     0.628705     0.861494    Uiso  ? O
   O355       1.0     0.593864     0.628751     0.871667    Uiso  ? O
   O356       1.0     0.618443     0.663876     0.877409    Uiso  ? O
   O357       1.0     0.635151     0.528374     0.801254    Uiso  ? O
   O358       1.0     0.671845     0.512584     0.786126    Uiso  ? O
   O359       1.0     0.633023     0.471878     0.807289    Uiso  ? O
   O360       1.0     0.670615     0.477236     0.784193    Uiso  ? O
   O361       1.0     0.594422     0.483914     0.752595    Uiso  ? O
   O362       1.0     0.631421     0.468341     0.737034    Uiso  ? O
   O363       1.0     0.612133     0.539769     0.779933    Uiso  ? O
   O364       1.0     0.632655     0.532223     0.743597    Uiso  ? O
   O365       1.0     0.478757     0.641283     0.195360    Uiso  ? O
   O366       1.0     0.489043     0.679501     0.215869    Uiso  ? O
   O367       1.0     0.477822     0.597207     0.244308    Uiso  ? O
   O368       1.0     0.468056     0.635527     0.263310    Uiso  ? O
   O369       1.0     0.538108     0.607851     0.232612    Uiso  ? O
   O370       1.0     0.533724     0.637191     0.265126    Uiso  ? O
   O371       1.0     0.536573     0.627831     0.204162    Uiso  ? O
   O372       1.0     0.522752     0.666835     0.217964    Uiso  ? O
   O373       1.0     0.575227     0.399649     0.114469    Uiso  ? O
   O374       1.0     0.575939     0.499766     0.191063    Uiso  ? O
   O375       1.0     0.508598     0.402442     0.175414    Uiso  ? O
   O376       1.0     0.592705     0.569355     0.894460    Uiso  ? O
   O377       1.0     0.578513     0.492617     0.818684    Uiso  ? O
   O378       1.0     0.494676     0.580129     0.187281    Uiso  ? O
   Zn73       1.0     0.606957     0.381168     0.106011    Uiso  ? Zn
   Zn74       1.0     0.652845     0.344618     0.102160    Uiso  ? Zn
   Zn75       1.0     0.607969     0.504389     0.217968    Uiso  ? Zn
   Zn76       1.0     0.650837     0.500492     0.258273    Uiso  ? Zn
   Zn77       1.0     0.505633     0.382661     0.210765    Uiso  ? Zn
   Zn78       1.0     0.503318     0.346199     0.257175    Uiso  ? Zn
   Zn79       1.0     0.615519     0.603513     0.893977    Uiso  ? Zn
   Zn80       1.0     0.657089     0.651864     0.894800    Uiso  ? Zn
   Zn81       1.0     0.607957     0.499871     0.789196    Uiso  ? Zn
   Zn82       1.0     0.656577     0.498302     0.749910    Uiso  ? Zn
   Zn83       1.0     0.499774     0.611126     0.213439    Uiso  ? Zn
   Zn84       1.0     0.500955     0.658427     0.252372    Uiso  ? Zn
   C673       1.0     0.359803     0.617634     0.857936    Uiso  ? C
   C674       1.0     0.350129     0.609554     0.830948    Uiso  ? C
   C675       1.0     0.328687     0.625145     0.819311    Uiso  ? C
   H409       1.0     0.321911     0.643398     0.826756    Uiso  ? H
   C676       1.0     0.315318     0.611902     0.798585    Uiso  ? C
   H410       1.0     0.297472     0.620018     0.789034    Uiso  ? H
   C677       1.0     0.325332     0.588915     0.787218    Uiso  ? C
   H411       1.0     0.317844     0.581543     0.768011    Uiso  ? H
   C678       1.0     0.347569     0.574122     0.797689    Uiso  ? C
   C679       1.0     0.358498     0.584799     0.821074    Uiso  ? C
   H412       1.0     0.374284     0.574460     0.831563    Uiso  ? H
   C680       1.0     0.355948     0.548407     0.787896    Uiso  ? C
   C681       1.0     0.401071     0.665142     0.868645    Uiso  ? C
   C682       1.0     0.420058     0.679799     0.850453    Uiso  ? C
   C683       1.0     0.419907     0.707685     0.848075    Uiso  ? C
   H413       1.0     0.407942     0.719751     0.861073    Uiso  ? H
   C684       1.0     0.432195     0.721266     0.827563    Uiso  ? C
   H414       1.0     0.430379     0.742405     0.826361    Uiso  ? H
   C685       1.0     0.449239     0.706538     0.810349    Uiso  ? C
   H415       1.0     0.460486     0.717625     0.794871    Uiso  ? H
   C686       1.0     0.451926     0.678923     0.813707    Uiso  ? C
   C687       1.0     0.437630     0.665801     0.834192    Uiso  ? C
   H416       1.0     0.438461     0.644314     0.836000    Uiso  ? H
   C688       1.0     0.469987     0.662444     0.796724    Uiso  ? C
   C689       1.0     0.404514     0.664472     0.131021    Uiso  ? C
   C690       1.0     0.422787     0.680602     0.147546    Uiso  ? C
   C691       1.0     0.421187     0.709634     0.148367    Uiso  ? C
   H417       1.0     0.409792     0.721694     0.132838    Uiso  ? H
   C692       1.0     0.439838     0.723686     0.163631    Uiso  ? C
   H418       1.0     0.439353     0.744629     0.164112    Uiso  ? H
   C693       1.0     0.458880     0.709727     0.178615    Uiso  ? C
   H419       1.0     0.474845     0.720546     0.189069    Uiso  ? H
   C694       1.0     0.457974     0.681358     0.180449    Uiso  ? C
   C695       1.0     0.439703     0.667156     0.164795    Uiso  ? C
   H420       1.0     0.438896     0.645849     0.166201    Uiso  ? H
   C696       1.0     0.477129     0.666798     0.198247    Uiso  ? C
   C697       1.0     0.346149     0.611666     0.142694    Uiso  ? C
   C698       1.0     0.332232     0.599454     0.165113    Uiso  ? C
   C699       1.0     0.308690     0.607938     0.174416    Uiso  ? C
   H421       1.0     0.298502     0.623546     0.163495    Uiso  ? H
   C700       1.0     0.298724     0.597298     0.197560    Uiso  ? C
   H422       1.0     0.280057     0.604045     0.205929    Uiso  ? H
   C701       1.0     0.312603     0.577518     0.211763    Uiso  ? C
   H423       1.0     0.304468     0.569721     0.229113    Uiso  ? H
   C702       1.0     0.335881     0.567921     0.201632    Uiso  ? C
   C703       1.0     0.344557     0.578048     0.177645    Uiso  ? C
   H424       1.0     0.364305     0.571819     0.171381    Uiso  ? H
   C704       1.0     0.349403     0.545557     0.214408    Uiso  ? C
   C705       1.0     0.404030     0.474159     0.742418    Uiso  ? C
   C706       1.0     0.419973     0.457429     0.725757    Uiso  ? C
   C707       1.0     0.415882     0.453997     0.699121    Uiso  ? C
   H425       1.0     0.403456     0.467807     0.686651    Uiso  ? H
   C708       1.0     0.427430     0.433495     0.683588    Uiso  ? C
   H426       1.0     0.426534     0.433682     0.662692    Uiso  ? H
   C709       1.0     0.447339     0.419077     0.696219    Uiso  ? C
   H427       1.0     0.460744     0.407187     0.684796    Uiso  ? H
   C710       1.0     0.453324     0.422924     0.723413    Uiso  ? C
   C711       1.0     0.438952     0.441824     0.737809    Uiso  ? C
   H428       1.0     0.441405     0.443915     0.758823    Uiso  ? H
   C712       1.0     0.472463     0.406020     0.735823    Uiso  ? C
   C713       1.0     0.394569     0.536895     0.739300    Uiso  ? C
   C714       1.0     0.407131     0.557991     0.725047    Uiso  ? C
   C715       1.0     0.394749     0.569934     0.703033    Uiso  ? C
   H429       1.0     0.376961     0.561209     0.693937    Uiso  ? H
   C716       1.0     0.405126     0.592474     0.691308    Uiso  ? C
   H430       1.0     0.393091     0.603778     0.676431    Uiso  ? H
   C717       1.0     0.428605     0.603448     0.700361    Uiso  ? C
   H431       1.0     0.436240     0.621760     0.690920    Uiso  ? H
   C718       1.0     0.442730     0.591738     0.722731    Uiso  ? C
   C719       1.0     0.431030     0.568830     0.734490    Uiso  ? C
   H432       1.0     0.439304     0.561005     0.752703    Uiso  ? H
   C720       1.0     0.465734     0.605618     0.733756    Uiso  ? C
   C721       1.0     0.347004     0.467876     0.798742    Uiso  ? C
   C722       1.0     0.333460     0.446227     0.813082    Uiso  ? C
   C723       1.0     0.307416     0.439512     0.806076    Uiso  ? C
   H433       1.0     0.297518     0.451645     0.791051    Uiso  ? H
   C724       1.0     0.294658     0.418566     0.818142    Uiso  ? C
   H434       1.0     0.274340     0.415200     0.812030    Uiso  ? H
   C725       1.0     0.308328     0.402450     0.836838    Uiso  ? C
   H435       1.0     0.297636     0.385164     0.845949    Uiso  ? H
   C726       1.0     0.333148     0.410534     0.846683    Uiso  ? C
   C727       1.0     0.346739     0.429722     0.833159    Uiso  ? C
   H436       1.0     0.365496     0.436833     0.840407    Uiso  ? H
   C728       1.0     0.346305     0.393905     0.867076    Uiso  ? C
   C729       1.0     0.547013     0.615800     0.748623    Uiso  ? C
   C730       1.0     0.572329     0.605796     0.740382    Uiso  ? C
   C731       1.0     0.584573     0.613140     0.716215    Uiso  ? C
   H437       1.0     0.576626     0.629577     0.705765    Uiso  ? H
   C732       1.0     0.608596     0.602087     0.707850    Uiso  ? C
   H438       1.0     0.616975     0.607803     0.689221    Uiso  ? H
   C733       1.0     0.619580     0.580364     0.722367    Uiso  ? C
   H439       1.0     0.637432     0.571471     0.711745    Uiso  ? H
   C734       1.0     0.607592     0.571212     0.744835    Uiso  ? C
   C735       1.0     0.584304     0.583547     0.753528    Uiso  ? C
   H440       1.0     0.575067     0.576873     0.772163    Uiso  ? H
   C736       1.0     0.617193     0.546902     0.756203    Uiso  ? C
   C737       1.0     0.532773     0.657562     0.794046    Uiso  ? C
   C738       1.0     0.548407     0.672160     0.815185    Uiso  ? C
   C739       1.0     0.546338     0.700092     0.816714    Uiso  ? C
   H441       1.0     0.534255     0.711813     0.803000    Uiso  ? H
   C740       1.0     0.562487     0.713327     0.835796    Uiso  ? C
   H442       1.0     0.563104     0.735848     0.836688    Uiso  ? H
   C741       1.0     0.580295     0.697720     0.851056    Uiso  ? C
   H443       1.0     0.593287     0.707474     0.865035    Uiso  ? H
   C742       1.0     0.580714     0.669490     0.850313    Uiso  ? C
   C743       1.0     0.564044     0.656370     0.832469    Uiso  ? C
   H444       1.0     0.566540     0.634811     0.829393    Uiso  ? H
   C744       1.0     0.598770     0.652815     0.866918    Uiso  ? C
   C745       1.0     0.391640     0.348746     0.865399    Uiso  ? C
   C746       1.0     0.406585     0.335872     0.843615    Uiso  ? C
   C747       1.0     0.400553     0.310509     0.835683    Uiso  ? C
   H445       1.0     0.382962     0.301011     0.844317    Uiso  ? H
   C748       1.0     0.415144     0.296532     0.816809    Uiso  ? C
   H446       1.0     0.411718     0.275211     0.813161    Uiso  ? H
   C749       1.0     0.436368     0.309177     0.805218    Uiso  ? C
   H447       1.0     0.449471     0.298623     0.790873    Uiso  ? H
   C750       1.0     0.441911     0.336595     0.811840    Uiso  ? C
   C751       1.0     0.425001     0.350200     0.829753    Uiso  ? C
   H448       1.0     0.431863     0.369171     0.837628    Uiso  ? H
   C752       1.0     0.464175     0.350717     0.798223    Uiso  ? C
   C753       1.0     0.346638     0.394670     0.142851    Uiso  ? C
   C754       1.0     0.334554     0.407331     0.165723    Uiso  ? C
   C755       1.0     0.315203     0.394468     0.180843    Uiso  ? C
   H449       1.0     0.308335     0.373163     0.175565    Uiso  ? H
   C756       1.0     0.303308     0.406236     0.202634    Uiso  ? C
   H450       1.0     0.286150     0.396217     0.212275    Uiso  ? H
   C757       1.0     0.311922     0.430751     0.211471    Uiso  ? C
   H451       1.0     0.301918     0.438580     0.228454    Uiso  ? H
   C758       1.0     0.334125     0.442291     0.198978    Uiso  ? C
   C759       1.0     0.344440     0.431550     0.175368    Uiso  ? C
   H452       1.0     0.358098     0.443458     0.164821    Uiso  ? H
   C760       1.0     0.346754     0.465711     0.211293    Uiso  ? C
   C761       1.0     0.395855     0.540770     0.260818    Uiso  ? C
   C762       1.0     0.409135     0.562756     0.274424    Uiso  ? C
   C763       1.0     0.397202     0.575862     0.296902    Uiso  ? C
   H453       1.0     0.379948     0.567584     0.307773    Uiso  ? H
   C764       1.0     0.405864     0.600396     0.305372    Uiso  ? C
   H454       1.0     0.396628     0.612153     0.321013    Uiso  ? H
   C765       1.0     0.427851     0.612092     0.292678    Uiso  ? C
   H455       1.0     0.434843     0.631482     0.299732    Uiso  ? H
   C766       1.0     0.442233     0.597587     0.272465    Uiso  ? C
   C767       1.0     0.432788     0.572682     0.264070    Uiso  ? C
   H456       1.0     0.441620     0.563658     0.247014    Uiso  ? H
   C768       1.0     0.464814     0.610424     0.260263    Uiso  ? C
   O379       1.0     0.383229     0.614269     0.865021    Uiso  ? O
   O380       1.0     0.344159     0.630736     0.872253    Uiso  ? O
   O381       1.0     0.402989     0.640387     0.872607    Uiso  ? O
   O382       1.0     0.384586     0.677631     0.883059    Uiso  ? O
   O383       1.0     0.409291     0.639778     0.128047    Uiso  ? O
   O384       1.0     0.385061     0.675616     0.119410    Uiso  ? O
   O385       1.0     0.361855     0.597862     0.128651    Uiso  ? O
   O386       1.0     0.342492     0.636748     0.138065    Uiso  ? O
   O387       1.0     0.415789     0.490912     0.757540    Uiso  ? O
   O388       1.0     0.379356     0.474896     0.739156    Uiso  ? O
   O389       1.0     0.408724     0.523803     0.755469    Uiso  ? O
   O390       1.0     0.370071     0.534737     0.739583    Uiso  ? O
   O391       1.0     0.374114     0.535538     0.799353    Uiso  ? O
   O392       1.0     0.343544     0.538074     0.768802    Uiso  ? O
   O393       1.0     0.372635     0.469140     0.799521    Uiso  ? O
   O394       1.0     0.333417     0.481537     0.782597    Uiso  ? O
   O395       1.0     0.539342     0.609785     0.771635    Uiso  ? O
   O396       1.0     0.532093     0.631451     0.734474    Uiso  ? O
   O397       1.0     0.531448     0.631747     0.794159    Uiso  ? O
   O398       1.0     0.516791     0.670952     0.779100    Uiso  ? O
   O399       1.0     0.473033     0.637758     0.799774    Uiso  ? O
   O400       1.0     0.483791     0.674294     0.777929    Uiso  ? O
   O401       1.0     0.482986     0.592592     0.746427    Uiso  ? O
   O402       1.0     0.466373     0.630721     0.735370    Uiso  ? O
   O403       1.0     0.393746     0.373426     0.869521    Uiso  ? O
   O404       1.0     0.379746     0.335306     0.881783    Uiso  ? O
   O405       1.0     0.371310     0.396165     0.870876    Uiso  ? O
   O406       1.0     0.332681     0.379445     0.882572    Uiso  ? O
   O407       1.0     0.359210     0.408305     0.126368    Uiso  ? O
   O408       1.0     0.347510     0.369369     0.140258    Uiso  ? O
   O409       1.0     0.405492     0.357289     0.130883    Uiso  ? O
   O410       1.0     0.366849     0.345036     0.143050    Uiso  ? O
   O411       1.0     0.371638     0.468379     0.209519    Uiso  ? O
   O412       1.0     0.333076     0.481416     0.225753    Uiso  ? O
   O413       1.0     0.359752     0.528056     0.200404    Uiso  ? O
   O414       1.0     0.347298     0.542252     0.240046    Uiso  ? O
   O415       1.0     0.409897     0.525138     0.246374    Uiso  ? O
   O416       1.0     0.370936     0.537402     0.263500    Uiso  ? O
   O417       1.0     0.392484     0.465360     0.231278    Uiso  ? O
   O418       1.0     0.380440     0.483141     0.268081    Uiso  ? O
   O419       1.0     0.533137     0.374540     0.798845    Uiso  ? O
   O420       1.0     0.539117     0.352991     0.761771    Uiso  ? O
   O421       1.0     0.521496     0.412288     0.755935    Uiso  ? O
   O422       1.0     0.532666     0.373849     0.737556    Uiso  ? O
   O423       1.0     0.485376     0.415605     0.754674    Uiso  ? O
   O424       1.0     0.474214     0.380589     0.730680    Uiso  ? O
   O425       1.0     0.466039     0.375424     0.800660    Uiso  ? O
   O426       1.0     0.478833     0.338562     0.781913    Uiso  ? O
   O427       1.0     0.420968     0.582847     0.106758    Uiso  ? O
   O428       1.0     0.421792     0.497927     0.822508    Uiso  ? O
   O429       1.0     0.486683     0.584490     0.812418    Uiso  ? O
   O430       1.0     0.424403     0.413977     0.112263    Uiso  ? O
   O431       1.0     0.415823     0.510178     0.182426    Uiso  ? O
   O432       1.0     0.503115     0.427826     0.818378    Uiso  ? O
   Zn85       1.0     0.392146     0.612944     0.104775    Uiso  ? Zn
   Zn86       1.0     0.350283     0.658079     0.101981    Uiso  ? Zn
   Zn87       1.0     0.395166     0.501685     0.791696    Uiso  ? Zn
   Zn88       1.0     0.348208     0.500617     0.752181    Uiso  ? Zn
   Zn89       1.0     0.498142     0.609902     0.781739    Uiso  ? Zn
   Zn90       1.0     0.500648     0.655418     0.744060    Uiso  ? Zn
   Zn91       1.0     0.391284     0.389917     0.107708    Uiso  ? Zn
   Zn92       1.0     0.349377     0.347516     0.104632    Uiso  ? Zn
   Zn93       1.0     0.389523     0.504964     0.213793    Uiso  ? Zn
   Zn94       1.0     0.348169     0.503902     0.257111    Uiso  ? Zn
   Zn95       1.0     0.500880     0.397633     0.790179    Uiso  ? Zn
   Zn96       1.0     0.497499     0.351949     0.747612    Uiso  ? Zn
   H457       1.0     0.421723     0.509615     0.838585    Uiso  ? H
   H458       1.0     0.437128     0.486794     0.820581    Uiso  ? H
   H459       1.0     0.558727     0.492972     0.196353    Uiso  ? H
   H460       1.0     0.579448     0.506739     0.173352    Uiso  ? H
   H461       1.0     0.486353     0.584665     0.169529    Uiso  ? H
   H462       1.0     0.494028     0.563282     0.193222    Uiso  ? H
   H463       1.0     0.580570     0.567426     0.879963    Uiso  ? H
   H464       1.0     0.590511     0.558766     0.111249    Uiso  ? H
   H465       1.0     0.495046     0.444168     0.815941    Uiso  ? H
   H466       1.0     0.519301     0.426188     0.827955    Uiso  ? H
   H467       1.0     0.576068     0.415906     0.124552    Uiso  ? H
   H468       1.0     0.558440     0.393810     0.106784    Uiso  ? H
   H469       1.0     0.568132     0.476663     0.816089    Uiso  ? H
   H470       1.0     0.573823     0.505510     0.832742    Uiso  ? H
   H471       1.0     0.426955     0.428468     0.124618    Uiso  ? H
   H472       1.0     0.439336     0.405349     0.105515    Uiso  ? H
   H473       1.0     0.524618     0.408979     0.167375    Uiso  ? H
   H474       1.0     0.493966     0.400181     0.163264    Uiso  ? H
   H475       1.0     0.412146     0.524707     0.171373    Uiso  ? H
   H476       1.0     0.427491     0.496307     0.177619    Uiso  ? H
   H477       1.0     0.499813     0.576567     0.823443    Uiso  ? H
   H478       1.0     0.470262     0.574980     0.810171    Uiso  ? H
   H479       1.0     0.423314     0.570272     0.120305    Uiso  ? H
   H480       1.0     0.436420     0.590820     0.896333    Uiso  ? H
   N1         1.0     0.113174     0.680549     0.316479    Uiso  ? N
   C769       1.0     0.102297     0.704503     0.326207    Uiso  ? C
   C770       1.0     0.102186     0.727843     0.307389    Uiso  ? C
   N2         1.0     0.113350     0.718311     0.282066    Uiso  ? N
   C771       1.0     0.140808     0.707929     0.287079    Uiso  ? C
   C772       1.0     0.140463     0.684297     0.307934    Uiso  ? C
   C773       1.0     0.895537     0.672550     0.293440    Uiso  ? C
   C774       1.0     0.893983     0.695681     0.273523    Uiso  ? C
   H481       1.0     0.893282     0.705575     0.347340    Uiso  ? H
   H482       1.0     0.116431     0.742625     0.316430    Uiso  ? H
   H483       1.0     0.153466     0.724934     0.293971    Uiso  ? H
   H484       1.0     0.150040     0.666026     0.298232    Uiso  ? H
   H485       1.0     0.876327     0.665281     0.301868    Uiso  ? H
   H486       1.0     0.103879     0.688845     0.253584    Uiso  ? H
   H487       1.0     0.880237     0.736198     0.305034    Uiso  ? H
   H488       1.0     0.150930     0.699607     0.268783    Uiso  ? H
   H489       1.0     0.151288     0.688376     0.326184    Uiso  ? H
   H490       1.0     0.105775     0.655256     0.281533    Uiso  ? H
   H491       1.0     0.873932     0.702825     0.272399    Uiso  ? H
   N3         1.0     0.898645     0.284460     0.716373    Uiso  ? N
   C775       1.0     0.883984     0.309509     0.723168    Uiso  ? C
   C776       1.0     0.885082     0.329850     0.702666    Uiso  ? C
   N4         1.0     0.897246     0.317998     0.678995    Uiso  ? N
   C777       1.0     0.126601     0.312154     0.685975    Uiso  ? C
   C778       1.0     0.127700     0.291855     0.708815    Uiso  ? C
   C779       1.0     0.885790     0.272359     0.693159    Uiso  ? C
   C780       1.0     0.885153     0.292952     0.670333    Uiso  ? C
   H492       1.0     0.868585     0.310701     0.738721    Uiso  ? H
   H493       1.0     0.897733     0.347140     0.710210    Uiso  ? H
   H494       1.0     0.135616     0.331915     0.691751    Uiso  ? H
   H495       1.0     0.138188     0.274300     0.701059    Uiso  ? H
   H496       1.0     0.866069     0.264865     0.699631    Uiso  ? H
   H497       1.0     0.895561     0.283843     0.653142    Uiso  ? H
   H498       1.0     0.864773     0.338186     0.698781    Uiso  ? H
   H499       1.0     0.137736     0.304526     0.667748    Uiso  ? H
   H500       1.0     0.137490     0.301560     0.725322    Uiso  ? H
   H501       1.0     0.894535     0.253837     0.685937    Uiso  ? H
   H502       1.0     0.863108     0.296443     0.664337    Uiso  ? H
   N5         1.0     0.106018     0.685603     0.682397    Uiso  ? N
   C781       1.0     0.877931     0.691068     0.691502    Uiso  ? C
   C782       1.0     0.875607     0.711123     0.714059    Uiso  ? C
   N6         1.0     0.104217     0.721508     0.719398    Uiso  ? N
   C783       1.0     0.120743     0.699659     0.727757    Uiso  ? C
   C784       1.0     0.122170     0.676983     0.705536    Uiso  ? C
   C785       1.0     0.117404     0.710348     0.671915    Uiso  ? C
   C786       1.0     0.114321     0.732292     0.694233    Uiso  ? C
   H503       1.0     0.860726     0.676979     0.686976    Uiso  ? H
   H504       1.0     0.865349     0.701676     0.731137    Uiso  ? H
   H505       1.0     0.113327     0.691535     0.746508    Uiso  ? H
   H506       1.0     0.143035     0.673721     0.701736    Uiso  ? H
   H507       1.0     0.105694     0.717429     0.654097    Uiso  ? H
   H508       1.0     0.135133     0.740186     0.698882    Uiso  ? H
   H509       1.0     0.862089     0.728967     0.708532    Uiso  ? H
   H510       1.0     0.140710     0.707290     0.732632    Uiso  ? H
   H511       1.0     0.114350     0.659285     0.715920    Uiso  ? H
   H512       1.0     0.137709     0.708581     0.662512    Uiso  ? H
   H513       1.0     0.102114     0.749611     0.686329    Uiso  ? H
   N7         1.0     0.898649     0.319312     0.318730    Uiso  ? N
   C787       1.0     0.889762     0.328948     0.293944    Uiso  ? C
   C788       1.0     0.890958     0.308467     0.271368    Uiso  ? C
   N8         1.0     0.104135     0.283383     0.282126    Uiso  ? N
   C789       1.0     0.130541     0.290731     0.293498    Uiso  ? C
   C790       1.0     0.127458     0.311115     0.316086    Uiso  ? C
   C791       1.0     0.881666     0.295373     0.325531    Uiso  ? C
   C792       1.0     0.885119     0.273753     0.303716    Uiso  ? C
   H514       1.0     0.894099     0.348485     0.288949    Uiso  ? H
   H515       1.0     0.104817     0.315700     0.255223    Uiso  ? H
   H516       1.0     0.143154     0.299051     0.276868    Uiso  ? H
   H517       1.0     0.137659     0.304811     0.336038    Uiso  ? H
   H518       1.0     0.862546     0.299599     0.330424    Uiso  ? H
   H519       1.0     0.893192     0.256563     0.313316    Uiso  ? H
   H520       1.0     0.870858     0.305254     0.261464    Uiso  ? H
   H521       1.0     0.141487     0.273184     0.301621    Uiso  ? H
   H522       1.0     0.140852     0.329024     0.310767    Uiso  ? H
   H523       1.0     0.889823     0.286902     0.344559    Uiso  ? H
   H524       1.0     0.865197     0.267042     0.297089    Uiso  ? H
   N9         1.0     0.676529     0.106654     0.689607    Uiso  ? N
   C793       1.0     0.677702     0.129772     0.705047    Uiso  ? C
   C794       1.0     0.700319     0.130646     0.723389    Uiso  ? C
   N10        1.0     0.713863     0.103920     0.722355    Uiso  ? N
   C795       1.0     0.694783     0.884558     0.727470    Uiso  ? C
   C796       1.0     0.671766     0.884670     0.706493    Uiso  ? C
   C797       1.0     0.702099     0.103252     0.675404    Uiso  ? C
   C798       1.0     0.724386     0.100000     0.695086    Uiso  ? C
   H525       1.0     0.663613     0.146700     0.701752    Uiso  ? H
   H526       1.0     0.691406     0.133378     0.744237    Uiso  ? H
   H527       1.0     0.684952     0.887084     0.747189    Uiso  ? H
   H528       1.0     0.669379     0.867238     0.693228    Uiso  ? H
   H529       1.0     0.706583     0.118927     0.661175    Uiso  ? H
   H530       1.0     0.735282     0.882682     0.693037    Uiso  ? H
   H531       1.0     0.714610     0.146263     0.718023    Uiso  ? H
   H532       1.0     0.703088     0.864912     0.728756    Uiso  ? H
   H533       1.0     0.652101     0.887918     0.717609    Uiso  ? H
   H534       1.0     0.702483     0.887012     0.662870    Uiso  ? H
   H535       1.0     0.738825     0.115614     0.690831    Uiso  ? H
   N11        1.0     0.693115     0.105570     0.324910    Uiso  ? N
   C799       1.0     0.710603     0.127521     0.328241    Uiso  ? C
   C800       1.0     0.732673     0.129002     0.307984    Uiso  ? C
   N12        1.0     0.729873     0.107148     0.289576    Uiso  ? N
   C801       1.0     0.732711     0.883448     0.305438    Uiso  ? C
   C802       1.0     0.709452     0.881860     0.325349    Uiso  ? C
   C803       1.0     0.681132     0.107561     0.298221    Uiso  ? C
   C804       1.0     0.703001     0.109092     0.277123    Uiso  ? C
   H536       1.0     0.712223     0.137112     0.347158    Uiso  ? H
   H537       1.0     0.752009     0.128204     0.317279    Uiso  ? H
   H538       1.0     0.751178     0.882409     0.317761    Uiso  ? H
   H539       1.0     0.696254     0.866041     0.322020    Uiso  ? H
   H540       1.0     0.667258     0.125581     0.297477    Uiso  ? H
   H541       1.0     0.702111     0.893219     0.262833    Uiso  ? H
   H542       1.0     0.729374     0.148657     0.299092    Uiso  ? H
   H543       1.0     0.731890     0.866643     0.291123    Uiso  ? H
   H544       1.0     0.714369     0.878442     0.347091    Uiso  ? H
   H545       1.0     0.668435     0.891053     0.295260    Uiso  ? H
   H546       1.0     0.701581     0.127857     0.265344    Uiso  ? H
   N13        1.0     0.286677     0.106370     0.276588    Uiso  ? N
   C805       1.0     0.308251     0.888080     0.272815    Uiso  ? C
   C806       1.0     0.329130     0.888450     0.294863    Uiso  ? C
   N14        1.0     0.319565     0.104891     0.315305    Uiso  ? N
   C807       1.0     0.318405     0.131775     0.303797    Uiso  ? C
   C808       1.0     0.298603     0.133030     0.280578    Uiso  ? C
   C809       1.0     0.273314     0.899729     0.300280    Uiso  ? C
   C810       1.0     0.293123     0.899674     0.324356    Uiso  ? C
   H547       1.0     0.310664     0.876614     0.254549    Uiso  ? H
   H548       1.0     0.348590     0.894169     0.286582    Uiso  ? H
   H549       1.0     0.338182     0.136265     0.295781    Uiso  ? H
   H550       1.0     0.282277     0.148466     0.283591    Uiso  ? H
   H551       1.0     0.263822     0.879893     0.299749    Uiso  ? H
   H552       1.0     0.285191     0.111478     0.340006    Uiso  ? H
   H553       1.0     0.332220     0.867699     0.303918    Uiso  ? H
   H554       1.0     0.312565     0.147643     0.320400    Uiso  ? H
   H555       1.0     0.308744     0.136935     0.262337    Uiso  ? H
   H556       1.0     0.258566     0.114200     0.304771    Uiso  ? H
   H557       1.0     0.292378     0.879332     0.332226    Uiso  ? H
   N15        1.0     0.317504     0.102678     0.681469    Uiso  ? N
   C811       1.0     0.327874     0.894169     0.705898    Uiso  ? C
   C812       1.0     0.308653     0.896912     0.729169    Uiso  ? C
   N16        1.0     0.282495     0.106924     0.718962    Uiso  ? N
   C813       1.0     0.286453     0.132733     0.706111    Uiso  ? C
   C814       1.0     0.309557     0.131033     0.686197    Uiso  ? C
   C815       1.0     0.295036     0.887620     0.676212    Uiso  ? C
   C816       1.0     0.273731     0.889714     0.698003    Uiso  ? C
   H558       1.0     0.347152     0.883317     0.706307    Uiso  ? H
   H559       1.0     0.316180     0.109898     0.743013    Uiso  ? H
   H560       1.0     0.289868     0.147859     0.721718    Uiso  ? H
   H561       1.0     0.304683     0.140868     0.667043    Uiso  ? H
   H562       1.0     0.298809     0.865962     0.672906    Uiso  ? H
   H563       1.0     0.255039     0.897992     0.690390    Uiso  ? H
   H564       1.0     0.304763     0.879484     0.740214    Uiso  ? H
   H565       1.0     0.267350     0.137670     0.694144    Uiso  ? H
   H566       1.0     0.327077     0.140209     0.692961    Uiso  ? H
   H567       1.0     0.286928     0.893858     0.655591    Uiso  ? H
   H568       1.0     0.269904     0.870571     0.707516    Uiso  ? H
   N17        1.0     0.679963     0.316794     0.100282    Uiso  ? N
   C817       1.0     0.696972     0.317175     0.123477    Uiso  ? C
   C818       1.0     0.717712     0.297321     0.125146    Uiso  ? C
   N18        1.0     0.716695     0.281133     0.101329    Uiso  ? N
   C819       1.0     0.691359     0.268657     0.899468    Uiso  ? C
   C820       1.0     0.668253     0.289920     0.896990    Uiso  ? C
   C821       1.0     0.697809     0.321005     0.876331    Uiso  ? C
   C822       1.0     0.719915     0.299440     0.877684    Uiso  ? C
   H569       1.0     0.692682     0.331753     0.139739    Uiso  ? H
   H570       1.0     0.715661     0.287115     0.143237    Uiso  ? H
   H571       1.0     0.687873     0.256417     0.118360    Uiso  ? H
   H572       1.0     0.658721     0.289349     0.876800    Uiso  ? H
   H573       1.0     0.705494     0.342375     0.878040    Uiso  ? H
   H574       1.0     0.720198     0.288104     0.859330    Uiso  ? H
   H575       1.0     0.737324     0.306353     0.128932    Uiso  ? H
   H576       1.0     0.691060     0.254990     0.882406    Uiso  ? H
   H577       1.0     0.653399     0.286658     0.112659    Uiso  ? H
   H578       1.0     0.687232     0.321784     0.858468    Uiso  ? H
   H579       1.0     0.738878     0.311073     0.878573    Uiso  ? H
   N19        1.0     0.716038     0.719840     0.107733    Uiso  ? N
   C823       1.0     0.712179     0.714181     0.880165    Uiso  ? C
   C824       1.0     0.692302     0.692223     0.875208    Uiso  ? C
   N20        1.0     0.682780     0.682145     0.101611    Uiso  ? N
   C825       1.0     0.705883     0.673151     0.117712    Uiso  ? C
   C826       1.0     0.726302     0.695647     0.121529    Uiso  ? C
   C827       1.0     0.690696     0.726599     0.120282    Uiso  ? C
   C828       1.0     0.670170     0.703478     0.116841    Uiso  ? C
   H580       1.0     0.727916     0.716159     0.865783    Uiso  ? H
   H581       1.0     0.704089     0.676672     0.863844    Uiso  ? H
   H582       1.0     0.715299     0.656223     0.107400    Uiso  ? H
   H583       1.0     0.728559     0.699310     0.144434    Uiso  ? H
   H584       1.0     0.681718     0.744469     0.111780    Uiso  ? H
   H585       1.0     0.663653     0.695418     0.136943    Uiso  ? H
   H586       1.0     0.676696     0.699221     0.863919    Uiso  ? H
   H587       1.0     0.698818     0.665959     0.135652    Uiso  ? H
   H588       1.0     0.744397     0.689944     0.113288    Uiso  ? H
   H589       1.0     0.694694     0.733981     0.140549    Uiso  ? H
   H590       1.0     0.653347     0.710694     0.105809    Uiso  ? H
   N21        1.0     0.280997     0.718551     0.891588    Uiso  ? N
   C829       1.0     0.297478     0.716389     0.868338    Uiso  ? C
   C830       1.0     0.319786     0.695422     0.870170    Uiso  ? C
   N22        1.0     0.319262     0.684262     0.897008    Uiso  ? N
   C831       1.0     0.321173     0.704673     0.117771    Uiso  ? C
   C832       1.0     0.298144     0.725456     0.113848    Uiso  ? C
   C833       1.0     0.269300     0.692961     0.896899    Uiso  ? C
   C834       1.0     0.292759     0.672358     0.899718    Uiso  ? C
   H591       1.0     0.290316     0.720718     0.849114    Uiso  ? H
   H592       1.0     0.339697     0.703156     0.867537    Uiso  ? H
   H593       1.0     0.342332     0.711813     0.117554    Uiso  ? H
   H594       1.0     0.286954     0.730211     0.131982    Uiso  ? H
   H595       1.0     0.256272     0.688148     0.879152    Uiso  ? H
   H596       1.0     0.288711     0.662482     0.119166    Uiso  ? H
   H597       1.0     0.315482     0.679073     0.856348    Uiso  ? H
   H598       1.0     0.317027     0.695481     0.138417    Uiso  ? H
   H599       1.0     0.308293     0.744730     0.108065    Uiso  ? H
   H600       1.0     0.257139     0.692787     0.115624    Uiso  ? H
   H601       1.0     0.289923     0.656271     0.886532    Uiso  ? H
   N23        1.0     0.287956     0.281879     0.104364    Uiso  ? N
   C835       1.0     0.313399     0.272514     0.111845    Uiso  ? C
   C836       1.0     0.334538     0.293941     0.110480    Uiso  ? C
   N24        1.0     0.321655     0.318890     0.104716    Uiso  ? N
   C837       1.0     0.309267     0.318439     0.878519    Uiso  ? C
   C838       1.0     0.290214     0.295040     0.877297    Uiso  ? C
   C839       1.0     0.279649     0.302585     0.123027    Uiso  ? C
   C840       1.0     0.301286     0.323845     0.125452    Uiso  ? C
   H602       1.0     0.317725     0.252344     0.118707    Uiso  ? H
   H603       1.0     0.347884     0.288948     0.894335    Uiso  ? H
   H604       1.0     0.324456     0.314533     0.862473    Uiso  ? H
   H605       1.0     0.269973     0.302201     0.871163    Uiso  ? H
   H606       1.0     0.276293     0.295137     0.142455    Uiso  ? H
   H607       1.0     0.292569     0.343877     0.122138    Uiso  ? H
   H608       1.0     0.345146     0.294374     0.129795    Uiso  ? H
   H609       1.0     0.299262     0.337215     0.875145    Uiso  ? H
   H610       1.0     0.297277     0.279690     0.861785    Uiso  ? H
   H611       1.0     0.261315     0.313186     0.115028    Uiso  ? H
   H612       1.0     0.309506     0.323052     0.145771    Uiso  ? H
   N25        1.0     0.276611     0.317084     0.506070    Uiso  ? N
   C841       1.0     0.271635     0.295455     0.525562    Uiso  ? C
   C842       1.0     0.292795     0.274737     0.526106    Uiso  ? C
   N26        1.0     0.312853     0.279661     0.505034    Uiso  ? N
   C843       1.0     0.298405     0.280686     0.478746    Uiso  ? C
   C844       1.0     0.276424     0.303260     0.479984    Uiso  ? C
   C845       1.0     0.302476     0.327485     0.511672    Uiso  ? C
   C846       1.0     0.324577     0.305639     0.510921    Uiso  ? C
   H613       1.0     0.252271     0.291550     0.532133    Uiso  ? H
   H614       1.0     0.283515     0.254771     0.524422    Uiso  ? H
   H615       1.0     0.289326     0.260910     0.477227    Uiso  ? H
   H616       1.0     0.280063     0.317626     0.464075    Uiso  ? H
   H617       1.0     0.303396     0.339634     0.530030    Uiso  ? H
   H618       1.0     0.341465     0.310942     0.496248    Uiso  ? H
   H619       1.0     0.301446     0.277893     0.545710    Uiso  ? H
   H620       1.0     0.311441     0.282010     0.462340    Uiso  ? H
   H621       1.0     0.257043     0.294744     0.478008    Uiso  ? H
   H622       1.0     0.306961     0.342533     0.495312    Uiso  ? H
   H623       1.0     0.334273     0.305426     0.531035    Uiso  ? H
   N27        1.0     0.320718     0.720301     0.496675    Uiso  ? N
   C847       1.0     0.293534     0.729111     0.496083    Uiso  ? C
   C848       1.0     0.272451     0.707788     0.497955    Uiso  ? C
   N28        1.0     0.285964     0.681900     0.497110    Uiso  ? N
   C849       1.0     0.301994     0.680986     0.473032    Uiso  ? C
   C850       1.0     0.324264     0.702353     0.473506    Uiso  ? C
   C851       1.0     0.323487     0.702556     0.520399    Uiso  ? C
   C852       1.0     0.303695     0.679305     0.520451    Uiso  ? C
   H624       1.0     0.287922     0.749313     0.499353    Uiso  ? H
   H625       1.0     0.257811     0.708569     0.481826    Uiso  ? H
   H626       1.0     0.289130     0.684653     0.455605    Uiso  ? H
   H627       1.0     0.343465     0.693691     0.473734    Uiso  ? H
   H628       1.0     0.322852     0.713180     0.538824    Uiso  ? H
   H629       1.0     0.314455     0.659703     0.517806    Uiso  ? H
   H630       1.0     0.261437     0.709218     0.518892    Uiso  ? H
   H631       1.0     0.310844     0.660690     0.469883    Uiso  ? H
   H632       1.0     0.323622     0.714575     0.454852    Uiso  ? H
   H633       1.0     0.344784     0.694308     0.519841    Uiso  ? H
   H634       1.0     0.290940     0.678468     0.538747    Uiso  ? H
   N29        1.0     0.685051     0.722036     0.504142    Uiso  ? N
   C853       1.0     0.688512     0.709285     0.528950    Uiso  ? C
   C854       1.0     0.710077     0.688524     0.529856    Uiso  ? C
   N30        1.0     0.721375     0.686149     0.503032    Uiso  ? N
   C855       1.0     0.699931     0.680306     0.483331    Uiso  ? C
   C856       1.0     0.678448     0.702699     0.484722    Uiso  ? C
   C857       1.0     0.710369     0.734375     0.497359    Uiso  ? C
   C858       1.0     0.731164     0.712622     0.495280    Uiso  ? C
   H635       1.0     0.678327     0.715688     0.544885    Uiso  ? H
   H636       1.0     0.700719     0.669868     0.534336    Uiso  ? H
   H637       1.0     0.690643     0.659550     0.488100    Uiso  ? H
   H638       1.0     0.676848     0.713212     0.463954    Uiso  ? H
   H639       1.0     0.715443     0.748161     0.513350    Uiso  ? H
   H640       1.0     0.739021     0.711825     0.474853    Uiso  ? H
   H641       1.0     0.726091     0.692587     0.543912    Uiso  ? H
   H642       1.0     0.708834     0.678167     0.463049    Uiso  ? H
   H643       1.0     0.657337     0.694662     0.486055    Uiso  ? H
   H644       1.0     0.709673     0.745978     0.479076    Uiso  ? H
   H645       1.0     0.750272     0.717700     0.506953    Uiso  ? H
   N31        1.0     0.673109     0.290881     0.501800    Uiso  ? N
   C859       1.0     0.669179     0.311829     0.521313    Uiso  ? C
   C860       1.0     0.688413     0.334890     0.518107    Uiso  ? C
   N32        1.0     0.708326     0.328066     0.498012    Uiso  ? N
   C861       1.0     0.720430     0.302321     0.505261    Uiso  ? C
   C862       1.0     0.698992     0.279840     0.505928    Uiso  ? C
   C863       1.0     0.673693     0.302579     0.474416    Uiso  ? C
   C864       1.0     0.694027     0.325168     0.472557    Uiso  ? C
   H646       1.0     0.654346     0.310790     0.535849    Uiso  ? H
   H647       1.0     0.697441     0.339549     0.537365    Uiso  ? H
   H648       1.0     0.728692     0.304417     0.525722    Uiso  ? H
   H649       1.0     0.703246     0.264328     0.490563    Uiso  ? H
   H650       1.0     0.654057     0.309911     0.470432    Uiso  ? H
   H651       1.0     0.708732     0.321477     0.456428    Uiso  ? H
   H652       1.0     0.677069     0.353484     0.514517    Uiso  ? H
   H653       1.0     0.735350     0.295747     0.490691    Uiso  ? H
   H654       1.0     0.700386     0.267483     0.524664    Uiso  ? H
   H655       1.0     0.676057     0.288258     0.457726    Uiso  ? H
   H656       1.0     0.682677     0.344417     0.468656    Uiso  ? H
   N33        1.0     0.320473     0.500757     0.285210    Uiso  ? N
   C865       1.0     0.309462     0.525718     0.292287    Uiso  ? C
   C866       1.0     0.289234     0.524468     0.314215    Uiso  ? C
   N34        1.0     0.285633     0.496123     0.321201    Uiso  ? N
   C867       1.0     0.277516     0.480419     0.297794    Uiso  ? C
   C868       1.0     0.299176     0.483443     0.275247    Uiso  ? C
   C869       1.0     0.332046     0.487809     0.308827    Uiso  ? C
   C870       1.0     0.311572     0.485683     0.330951    Uiso  ? C
   H657       1.0     0.322589     0.541562     0.291353    Uiso  ? H
   H658       1.0     0.271273     0.533687     0.307569    Uiso  ? H
   H659       1.0     0.258009     0.487188     0.290892    Uiso  ? H
   H660       1.0     0.307932     0.463667     0.268738    Uiso  ? H
   H661       1.0     0.348859     0.500441     0.315572    Uiso  ? H
   H662       1.0     0.310249     0.464237     0.337243    Uiso  ? H
   H663       1.0     0.298002     0.534093     0.330891    Uiso  ? H
   H664       1.0     0.275980     0.459389     0.302479    Uiso  ? H
   H665       1.0     0.290450     0.493163     0.256814    Uiso  ? H
   H666       1.0     0.338892     0.467125     0.305691    Uiso  ? H
   H667       1.0     0.316716     0.495252     0.349166    Uiso  ? H
   N35        1.0     0.716355     0.500816     0.318279    Uiso  ? N
   C871       1.0     0.691543     0.505684     0.330312    Uiso  ? C
   C872       1.0     0.667998     0.506218     0.311372    Uiso  ? C
   N36        1.0     0.678314     0.499086     0.284455    Uiso  ? N
   C873       1.0     0.697843     0.519285     0.276738    Uiso  ? C
   C874       1.0     0.719524     0.521639     0.297949    Uiso  ? C
   C875       1.0     0.714982     0.474511     0.305021    Uiso  ? C
   C876       1.0     0.692081     0.473670     0.285567    Uiso  ? C
   H668       1.0     0.692358     0.518820     0.346539    Uiso  ? H
   H669       1.0     0.658969     0.526552     0.312267    Uiso  ? H
   H670       1.0     0.688765     0.539135     0.274224    Uiso  ? H
   H671       1.0     0.738855     0.520001     0.288473    Uiso  ? H
   H672       1.0     0.713843     0.458993     0.320867    Uiso  ? H
   H673       1.0     0.699336     0.468306     0.265092    Uiso  ? H
   H674       1.0     0.653217     0.491559     0.319132    Uiso  ? H
   H675       1.0     0.707652     0.514136     0.257898    Uiso  ? H
   H676       1.0     0.718562     0.541716     0.306944    Uiso  ? H
   H677       1.0     0.734165     0.470792     0.293271    Uiso  ? H
   H678       1.0     0.678634     0.458619     0.292856    Uiso  ? H
   N37        1.0     0.322526     0.496184     0.722479    Uiso  ? N
   C877       1.0     0.330339     0.513246     0.700343    Uiso  ? C
   C878       1.0     0.309356     0.515873     0.677353    Uiso  ? C
   N38        1.0     0.286011     0.498955     0.684454    Uiso  ? N
   C879       1.0     0.296048     0.471777     0.688703    Uiso  ? C
   C880       1.0     0.318218     0.469821     0.709684    Uiso  ? C
   C881       1.0     0.296193     0.505403     0.732047    Uiso  ? C
   C882       1.0     0.274615     0.508742     0.709201    Uiso  ? C
   H679       1.0     0.351353     0.517804     0.697333    Uiso  ? H
   H680       1.0     0.318020     0.508624     0.658740    Uiso  ? H
   H681       1.0     0.304606     0.464120     0.669623    Uiso  ? H
   H682       1.0     0.314645     0.454042     0.724360    Uiso  ? H
   H683       1.0     0.298347     0.523805     0.743241    Uiso  ? H
   H684       1.0     0.256523     0.496502     0.716169    Uiso  ? H
   H685       1.0     0.302957     0.536599     0.674679    Uiso  ? H
   H686       1.0     0.279807     0.457444     0.693594    Uiso  ? H
   H687       1.0     0.336716     0.462876     0.699550    Uiso  ? H
   H688       1.0     0.287845     0.492932     0.748417    Uiso  ? H
   H689       1.0     0.269990     0.530200     0.707518    Uiso  ? H
   N39        1.0     0.720704     0.505219     0.683501    Uiso  ? N
   C883       1.0     0.709382     0.479003     0.686648    Uiso  ? C
   C884       1.0     0.688754     0.475705     0.708839    Uiso  ? C
   N40        1.0     0.686032     0.501746     0.721813    Uiso  ? N
   C885       1.0     0.711681     0.512502     0.732460    Uiso  ? C
   C886       1.0     0.732776     0.511025     0.709569    Uiso  ? C
   C887       1.0     0.698752     0.523548     0.678639    Uiso  ? C
   C888       1.0     0.677204     0.520541     0.700935    Uiso  ? C
   H690       1.0     0.714907     0.463092     0.673205    Uiso  ? H
   H691       1.0     0.694796     0.459482     0.721941    Uiso  ? H
   H692       1.0     0.717571     0.501572     0.749192    Uiso  ? H
   H693       1.0     0.742399     0.530797     0.707848    Uiso  ? H
   H694       1.0     0.690528     0.519038     0.658686    Uiso  ? H
   H695       1.0     0.673768     0.540699     0.709037    Uiso  ? H
   H696       1.0     0.669682     0.470667     0.698706    Uiso  ? H
   H697       1.0     0.708781     0.532791     0.739099    Uiso  ? H
   H698       1.0     0.748316     0.495978     0.714826    Uiso  ? H
   H699       1.0     0.706263     0.543886     0.680613    Uiso  ? H
   H700       1.0     0.659643     0.512651     0.690752    Uiso  ? H
   N41        1.0     0.495792     0.320560     0.723340    Uiso  ? N
   C889       1.0     0.497859     0.329334     0.696813    Uiso  ? C
   C890       1.0     0.499835     0.308119     0.675786    Uiso  ? C
   N42        1.0     0.494607     0.281829     0.688564    Uiso  ? N
   C891       1.0     0.516001     0.278529     0.707464    Uiso  ? C
   C892       1.0     0.516565     0.301096     0.728799    Uiso  ? C
   C893       1.0     0.470034     0.307013     0.724914    Uiso  ? C
   C894       1.0     0.469101     0.283812     0.703983    Uiso  ? C
   H701       1.0     0.504151     0.348992     0.691379    Uiso  ? H
   H702       1.0     0.518907     0.309119     0.666078    Uiso  ? H
   H703       1.0     0.534771     0.279015     0.695792    Uiso  ? H
   H704       1.0     0.514526     0.294151     0.749115    Uiso  ? H
   H705       1.0     0.453023     0.320024     0.719866    Uiso  ? H
   H706       1.0     0.464802     0.265472     0.713667    Uiso  ? H
   H707       1.0     0.484039     0.311031     0.660203    Uiso  ? H
   H708       1.0     0.512848     0.259522     0.718149    Uiso  ? H
   H709       1.0     0.535977     0.310583     0.728091    Uiso  ? H
   H710       1.0     0.466448     0.298341     0.743929    Uiso  ? H
   H711       1.0     0.452234     0.287250     0.690453    Uiso  ? H
   N43        1.0     0.501657     0.317243     0.284851    Uiso  ? N
   C895       1.0     0.527610     0.316194     0.297663    Uiso  ? C
   C896       1.0     0.529456     0.296637     0.321189    Uiso  ? C
   N44        1.0     0.503297     0.282717     0.323090    Uiso  ? N
   C897       1.0     0.482729     0.303173     0.327590    Uiso  ? C
   C898       1.0     0.481705     0.323473     0.304767    Uiso  ? C
   C899       1.0     0.494479     0.291017     0.275360    Uiso  ? C
   C900       1.0     0.497384     0.269592     0.296337    Uiso  ? C
   H712       1.0     0.543587     0.330689     0.294263    Uiso  ? H
   H713       1.0     0.532520     0.305118     0.340609    Uiso  ? H
   H714       1.0     0.486393     0.315625     0.345960    Uiso  ? H
   H715       1.0     0.461092     0.324411     0.297404    Uiso  ? H
   H716       1.0     0.507284     0.285994     0.258863    Uiso  ? H
   H717       1.0     0.478694     0.257942     0.296962    Uiso  ? H
   H718       1.0     0.545130     0.280485     0.317457    Uiso  ? H
   H719       1.0     0.464799     0.290457     0.328765    Uiso  ? H
   H720       1.0     0.484343     0.343679     0.312211    Uiso  ? H
   H721       1.0     0.474934     0.291632     0.268132    Uiso  ? H
   H722       1.0     0.512839     0.255327     0.290989    Uiso  ? H
   N45        1.0     0.502173     0.683882     0.714371    Uiso  ? N
   C901       1.0     0.480658     0.702129     0.717453    Uiso  ? C
   C902       1.0     0.477937     0.722279     0.697008    Uiso  ? C
   N46        1.0     0.500302     0.720087     0.678085    Uiso  ? N
   C903       1.0     0.526184     0.720875     0.692673    Uiso  ? C
   C904       1.0     0.527403     0.700135     0.714272    Uiso  ? C
   C905       1.0     0.498951     0.671369     0.688076    Uiso  ? C
   C906       1.0     0.498201     0.693218     0.665831    Uiso  ? C
   H723       1.0     0.463424     0.696341     0.730745    Uiso  ? H
   H724       1.0     0.478765     0.740807     0.705144    Uiso  ? H
   H725       1.0     0.529846     0.740570     0.702191    Uiso  ? H
   H726       1.0     0.546297     0.687690     0.710872    Uiso  ? H
   H727       1.0     0.480239     0.661131     0.686074    Uiso  ? H
   H728       1.0     0.516284     0.691750     0.652254    Uiso  ? H
   H729       1.0     0.457826     0.720677     0.686260    Uiso  ? H
   H730       1.0     0.543534     0.717631     0.679012    Uiso  ? H
   H731       1.0     0.531294     0.710955     0.733570    Uiso  ? H
   H732       1.0     0.516447     0.657151     0.683166    Uiso  ? H
   H733       1.0     0.479104     0.691104     0.653286    Uiso  ? H
   N47        1.0     0.499622     0.725147     0.315583    Uiso  ? N
   C907       1.0     0.499772     0.699840     0.327183    Uiso  ? C
   C908       1.0     0.499912     0.677576     0.307707    Uiso  ? C
   N48        1.0     0.500620     0.687709     0.280241    Uiso  ? N
   C909       1.0     0.476485     0.704435     0.277305    Uiso  ? C
   C910       1.0     0.476243     0.727562     0.297553    Uiso  ? C
   C911       1.0     0.522826     0.727582     0.297579    Uiso  ? C
   C912       1.0     0.524907     0.703470     0.278235    Uiso  ? C
   H734       1.0     0.497301     0.698468     0.348231    Uiso  ? H
   H735       1.0     0.479849     0.667597     0.311240    Uiso  ? H
   H736       1.0     0.459438     0.691632     0.281886    Uiso  ? H
   H737       1.0     0.477321     0.745380     0.285479    Uiso  ? H
   H738       1.0     0.540612     0.726682     0.309917    Uiso  ? H
   H739       1.0     0.529408     0.711012     0.257656    Uiso  ? H
   H740       1.0     0.514799     0.661202     0.311340    Uiso  ? H
   H741       1.0     0.475682     0.713212     0.256877    Uiso  ? H
   H742       1.0     0.458040     0.726158     0.309114    Uiso  ? H
   H743       1.0     0.522632     0.745618     0.286104    Uiso  ? H
   H744       1.0     0.542426     0.691689     0.284370    Uiso  ? H
