
#======================================================================
# CRYSTAL DATA
#----------------------------------------------------------------------
data_VESTA_phase_1

_chemical_name_common                  ' Atoms. Timestep: 0'
_cell_length_a                         45.068111
_cell_length_b                         45.068111
_cell_length_c                         45.068111
_cell_angle_alpha                      90.000000
_cell_angle_beta                       90.000000
_cell_angle_gamma                      90.000000
_cell_volume                           1.000000
_space_group_name_H-M_alt              'P 1'
_space_group_IT_number                 1

loop_
_space_group_symop_operation_xyz
   'x, y, z'

loop_
   _atom_site_label
   _atom_site_occupancy
   _atom_site_fract_x
   _atom_site_fract_y
   _atom_site_fract_z
   _atom_site_adp_type
   _atom_site_U_iso_or_equiv
   _atom_site_type_symbol
   C1         1.0     0.803158     0.282802     0.143567    Uiso  ? C
   C2         1.0     0.773787     0.275245     0.133737    Uiso  ? C
   C3         1.0     0.757194     0.295046     0.115924    Uiso  ? C
   H1         1.0     0.767354     0.313959     0.106355    Uiso  ? H
   C4         1.0     0.729239     0.287029     0.105016    Uiso  ? C
   H2         1.0     0.718528     0.297984     0.889780    Uiso  ? H
   C5         1.0     0.716150     0.260396     0.114748    Uiso  ? C
   H3         1.0     0.693821     0.254951     0.106989    Uiso  ? H
   C6         1.0     0.730894     0.241285     0.136106    Uiso  ? C
   C7         1.0     0.760407     0.250431     0.145182    Uiso  ? C
   H4         1.0     0.773350     0.235740     0.157798    Uiso  ? H
   C8         1.0     0.717956     0.212548     0.145466    Uiso  ? C
   C9         1.0     0.867687     0.269513     0.207400    Uiso  ? C
   C10        1.0     0.873649     0.259151     0.237343    Uiso  ? C
   C11        1.0     0.883756     0.278260     0.259199    Uiso  ? C
   H5         1.0     0.885622     0.302168     0.253317    Uiso  ? H
   C12        1.0     0.891278     0.270064     0.289251    Uiso  ? C
   H6         1.0     0.105305     0.286150     0.303944    Uiso  ? H
   C13        1.0     0.886822     0.240431     0.296724    Uiso  ? C
   H7         1.0     0.892074     0.233457     0.320561    Uiso  ? H
   C14        1.0     0.874335     0.220753     0.276477    Uiso  ? C
   C15        1.0     0.869438     0.229811     0.246008    Uiso  ? C
   H8         1.0     0.860657     0.213875     0.229508    Uiso  ? H
   C16        1.0     0.870471     0.188261     0.282894    Uiso  ? C
   C17        1.0     0.113250     0.316294     0.162095    Uiso  ? C
   C18        1.0     0.145965     0.324026     0.163255    Uiso  ? C
   C19        1.0     0.156398     0.353471     0.164537    Uiso  ? C
   H9         1.0     0.141799     0.372342     0.166865    Uiso  ? H
   C20        1.0     0.186914     0.359814     0.163579    Uiso  ? C
   H10        1.0     0.192894     0.383199     0.163716    Uiso  ? H
   C21        1.0     0.207415     0.336634     0.160212    Uiso  ? C
   H11        1.0     0.230773     0.343180     0.159613    Uiso  ? H
   C22        1.0     0.198719     0.307287     0.158413    Uiso  ? C
   C23        1.0     0.167854     0.301583     0.160557    Uiso  ? C
   H12        1.0     0.160299     0.278464     0.158310    Uiso  ? H
   C24        1.0     0.220284     0.283277     0.153097    Uiso  ? C
   C25        1.0     0.862938     0.310354     0.103706    Uiso  ? C
   C26        1.0     0.866054     0.321697     0.875027    Uiso  ? C
   C27        1.0     0.853786     0.348940     0.868630    Uiso  ? C
   H13        1.0     0.842507     0.359774     0.885655    Uiso  ? H
   C28        1.0     0.859333     0.362714     0.840961    Uiso  ? C
   H14        1.0     0.848966     0.384320     0.835675    Uiso  ? H
   C29        1.0     0.875633     0.347799     0.819568    Uiso  ? C
   H15        1.0     0.879762     0.358882     0.796004    Uiso  ? H
   C30        1.0     0.884379     0.317727     0.824774    Uiso  ? C
   C31        1.0     0.881677     0.306473     0.853235    Uiso  ? C
   H16        1.0     0.892079     0.285243     0.858467    Uiso  ? H
   C32        1.0     0.103015     0.299639     0.801580    Uiso  ? C
   C33        1.0     0.684029     0.103483     0.142259    Uiso  ? C
   C34        1.0     0.674442     0.867224     0.137034    Uiso  ? C
   C35        1.0     0.646595     0.856083     0.145003    Uiso  ? C
   H17        1.0     0.630943     0.870910     0.155332    Uiso  ? H
   C36        1.0     0.638270     0.827531     0.136344    Uiso  ? C
   H18        1.0     0.618231     0.817819     0.146533    Uiso  ? H
   C37        1.0     0.658259     0.808966     0.120978    Uiso  ? C
   H19        1.0     0.651013     0.785224     0.117223    Uiso  ? H
   C38        1.0     0.685893     0.820133     0.110839    Uiso  ? C
   C39        1.0     0.693741     0.849103     0.120494    Uiso  ? C
   H20        1.0     0.714949     0.857783     0.114038    Uiso  ? H
   C40        1.0     0.706422     0.799820     0.893758    Uiso  ? C
   C41        1.0     0.723123     0.131691     0.196438    Uiso  ? C
   C42        1.0     0.731335     0.119507     0.225825    Uiso  ? C
   C43        1.0     0.708792     0.116657     0.247836    Uiso  ? C
   H21        1.0     0.685394     0.121179     0.243946    Uiso  ? H
   C44        1.0     0.717088     0.114210     0.277243    Uiso  ? C
   H22        1.0     0.699719     0.115271     0.294676    Uiso  ? H
   C45        1.0     0.747318     0.117404     0.285683    Uiso  ? C
   H23        1.0     0.753509     0.120356     0.309512    Uiso  ? H
   C46        1.0     0.769114     0.117793     0.264342    Uiso  ? C
   C47        1.0     0.761479     0.116338     0.233984    Uiso  ? C
   H24        1.0     0.776176     0.120683     0.215533    Uiso  ? H
   C48        1.0     0.799679     0.119652     0.272661    Uiso  ? C
   C49        1.0     0.694427     0.166244     0.891848    Uiso  ? C
   C50        1.0     0.689765     0.173724     0.861509    Uiso  ? C
   C51        1.0     0.665178     0.189310     0.850588    Uiso  ? C
   H25        1.0     0.649047     0.196503     0.865790    Uiso  ? H
   C52        1.0     0.661204     0.194958     0.820855    Uiso  ? C
   H26        1.0     0.640491     0.204723     0.815060    Uiso  ? H
   C53        1.0     0.681535     0.186720     0.800872    Uiso  ? C
   H27        1.0     0.679301     0.196699     0.778053    Uiso  ? H
   C54        1.0     0.708499     0.171728     0.809868    Uiso  ? C
   C55        1.0     0.713334     0.168574     0.839472    Uiso  ? C
   H28        1.0     0.734846     0.160437     0.847675    Uiso  ? H
   C56        1.0     0.732318     0.163129     0.788671    Uiso  ? C
   C57        1.0     0.853102     0.878498     0.324755    Uiso  ? C
   C58        1.0     0.850156     0.847124     0.332295    Uiso  ? C
   C59        1.0     0.845225     0.837713     0.362156    Uiso  ? C
   H29        1.0     0.841513     0.851927     0.381063    Uiso  ? H
   C60        1.0     0.842219     0.806953     0.367666    Uiso  ? C
   H30        1.0     0.839760     0.798570     0.390478    Uiso  ? H
   C61        1.0     0.844260     0.784882     0.345763    Uiso  ? C
   H31        1.0     0.844744     0.760989     0.352196    Uiso  ? H
   C62        1.0     0.848826     0.794366     0.316268    Uiso  ? C
   C63        1.0     0.850759     0.825115     0.309496    Uiso  ? C
   H32        1.0     0.857169     0.831718     0.288239    Uiso  ? H
   C64        1.0     0.849803     0.773155     0.290917    Uiso  ? C
   C65        1.0     0.112037     0.126465     0.310295    Uiso  ? C
   C66        1.0     0.143658     0.128124     0.316130    Uiso  ? C
   C67        1.0     0.154525     0.149154     0.336737    Uiso  ? C
   H33        1.0     0.141110     0.162928     0.348870    Uiso  ? H
   C68        1.0     0.184139     0.148458     0.343973    Uiso  ? C
   H34        1.0     0.193115     0.164383     0.358688    Uiso  ? H
   C69        1.0     0.204081     0.129713     0.327992    Uiso  ? C
   H35        1.0     0.227454     0.128764     0.333659    Uiso  ? H
   C70        1.0     0.193588     0.109142     0.306793    Uiso  ? C
   C71        1.0     0.163283     0.108578     0.300430    Uiso  ? C
   H36        1.0     0.154717     0.888410     0.283016    Uiso  ? H
   C72        1.0     0.214207     0.883681     0.290669    Uiso  ? C
   C73        1.0     0.734420     0.893997     0.760076    Uiso  ? C
   C74        1.0     0.717658     0.867963     0.769267    Uiso  ? C
   C75        1.0     0.693792     0.859119     0.751511    Uiso  ? C
   H37        1.0     0.688003     0.871538     0.731320    Uiso  ? H
   C76        1.0     0.680037     0.831250     0.756116    Uiso  ? C
   H38        1.0     0.660387     0.826073     0.743046    Uiso  ? H
   C77        1.0     0.689168     0.813889     0.779762    Uiso  ? C
   H39        1.0     0.680310     0.792202     0.782476    Uiso  ? H
   C78        1.0     0.712251     0.823297     0.799339    Uiso  ? C
   C79        1.0     0.725431     0.850771     0.794140    Uiso  ? C
   H40        1.0     0.743610     0.857738     0.809124    Uiso  ? H
   C80        1.0     0.722223     0.802833     0.821492    Uiso  ? C
   C81        1.0     0.784502     0.198950     0.741172    Uiso  ? C
   C82        1.0     0.796230     0.229070     0.735176    Uiso  ? C
   C83        1.0     0.777268     0.250748     0.725524    Uiso  ? C
   H41        1.0     0.754693     0.244482     0.719282    Uiso  ? H
   C84        1.0     0.787346     0.279995     0.724878    Uiso  ? C
   H42        1.0     0.772209     0.297256     0.719269    Uiso  ? H
   C85        1.0     0.816881     0.286474     0.728469    Uiso  ? C
   H43        1.0     0.822733     0.308883     0.728588    Uiso  ? H
   C86        1.0     0.837086     0.264516     0.738445    Uiso  ? C
   C87        1.0     0.825888     0.235128     0.739996    Uiso  ? C
   H44        1.0     0.838939     0.217141     0.744715    Uiso  ? H
   C88        1.0     0.867875     0.269453     0.745201    Uiso  ? C
   C89        1.0     0.171929     0.278790     0.795853    Uiso  ? C
   C90        1.0     0.196910     0.286237     0.816491    Uiso  ? C
   C91        1.0     0.215920     0.310407     0.808953    Uiso  ? C
   H45        1.0     0.213964     0.323678     0.789350    Uiso  ? H
   C92        1.0     0.237356     0.320163     0.828601    Uiso  ? C
   H46        1.0     0.252678     0.337635     0.823709    Uiso  ? H
   C93        1.0     0.244470     0.302861     0.852727    Uiso  ? C
   H47        1.0     0.264234     0.309588     0.863770    Uiso  ? H
   C94        1.0     0.227926     0.278140     0.860376    Uiso  ? C
   C95        1.0     0.202827     0.269791     0.843028    Uiso  ? C
   H48        1.0     0.190439     0.249592     0.848711    Uiso  ? H
   C96        1.0     0.236995     0.259826     0.886001    Uiso  ? C
   O1         1.0     0.820250     0.262047     0.153265    Uiso  ? O
   O2         1.0     0.815375     0.306635     0.136368    Uiso  ? O
   O3         1.0     0.883150     0.260877     0.186714    Uiso  ? O
   O4         1.0     0.847693     0.288655     0.204162    Uiso  ? O
   O5         1.0     0.107002     0.288922     0.160176    Uiso  ? O
   O6         1.0     0.886110     0.334777     0.160950    Uiso  ? O
   O7         1.0     0.877547     0.286303     0.110312    Uiso  ? O
   O8         1.0     0.845460     0.322127     0.120749    Uiso  ? O
   O9         1.0     0.711925     0.110185     0.145935    Uiso  ? O
   O10        1.0     0.664352     0.124066     0.142279    Uiso  ? O
   O11        1.0     0.732349     0.119044     0.173331    Uiso  ? O
   O12        1.0     0.708335     0.155713     0.193978    Uiso  ? O
   O13        1.0     0.734113     0.194877     0.160357    Uiso  ? O
   O14        1.0     0.693435     0.204016     0.135538    Uiso  ? O
   O15        1.0     0.717847     0.151042     0.899527    Uiso  ? O
   O16        1.0     0.679958     0.179410     0.113064    Uiso  ? O
   O17        1.0     0.858556     0.884289     0.298171    Uiso  ? O
   O18        1.0     0.847213     0.104569     0.342890    Uiso  ? O
   O19        1.0     0.896654     0.107947     0.291754    Uiso  ? O
   O20        1.0     0.890619     0.146439     0.320251    Uiso  ? O
   O21        1.0     0.861691     0.170008     0.262099    Uiso  ? O
   O22        1.0     0.874457     0.179047     0.309015    Uiso  ? O
   O23        1.0     0.820250     0.106804     0.256720    Uiso  ? O
   O24        1.0     0.808223     0.137162     0.293116    Uiso  ? O
   O25        1.0     0.757405     0.106957     0.776309    Uiso  ? O
   O26        1.0     0.726037     0.115354     0.739430    Uiso  ? O
   O27        1.0     0.751241     0.143250     0.796565    Uiso  ? O
   O28        1.0     0.733730     0.173715     0.761738    Uiso  ? O
   O29        1.0     0.802206     0.178159     0.747420    Uiso  ? O
   O30        1.0     0.757154     0.193919     0.741573    Uiso  ? O
   O31        1.0     0.815810     0.108481     0.760385    Uiso  ? O
   O32        1.0     0.792101     0.120850     0.719194    Uiso  ? O
   O33        1.0     0.882946     0.248277     0.754644    Uiso  ? O
   O34        1.0     0.880026     0.295645     0.743881    Uiso  ? O
   O35        1.0     0.116355     0.274983     0.807354    Uiso  ? O
   O36        1.0     0.896987     0.309719     0.775036    Uiso  ? O
   O37        1.0     0.151737     0.260170     0.804245    Uiso  ? O
   O38        1.0     0.168740     0.291023     0.771381    Uiso  ? O
   O39        1.0     0.156425     0.235136     0.738331    Uiso  ? O
   O40        1.0     0.138255     0.268462     0.706375    Uiso  ? O
   O41        1.0     0.777162     0.747428     0.839924    Uiso  ? O
   O42        1.0     0.743845     0.712640     0.851797    Uiso  ? O
   O43        1.0     0.765814     0.765567     0.108388    Uiso  ? O
   O44        1.0     0.723305     0.743405     0.105545    Uiso  ? O
   O45        1.0     0.729298     0.810889     0.879646    Uiso  ? O
   O46        1.0     0.702324     0.771664     0.894712    Uiso  ? O
   O47        1.0     0.739641     0.811646     0.842170    Uiso  ? O
   O48        1.0     0.710019     0.777886     0.822910    Uiso  ? O
   O49        1.0     0.872406     0.218198     0.129015    Uiso  ? O
   O50        1.0     0.782682     0.149727     0.136445    Uiso  ? O
   O51        1.0     0.876294     0.111885     0.219774    Uiso  ? O
   O52        1.0     0.810149     0.154204     0.817560    Uiso  ? O
   O53        1.0     0.116502     0.197971     0.787031    Uiso  ? O
   O54        1.0     0.805752     0.806785     0.860540    Uiso  ? O
   Zn1        1.0     0.865963     0.260818     0.144792    Uiso  ? Zn
   Zn2        1.0     0.843022     0.320567     0.169206    Uiso  ? Zn
   Zn3        1.0     0.737098     0.152609     0.142508    Uiso  ? Zn
   Zn4        1.0     0.677856     0.165044     0.159786    Uiso  ? Zn
   Zn5        1.0     0.860833     0.123036     0.264067    Uiso  ? Zn
   Zn6        1.0     0.843517     0.145817     0.321895    Uiso  ? Zn
   Zn7        1.0     0.792543     0.141993     0.776698    Uiso  ? Zn
   Zn8        1.0     0.753147     0.148849     0.725992    Uiso  ? Zn
   Zn9        1.0     0.127357     0.241034     0.773993    Uiso  ? Zn
   Zn10       1.0     0.134168     0.297267     0.741673    Uiso  ? Zn
   Zn11       1.0     0.766859     0.783684     0.866185    Uiso  ? Zn
   Zn12       1.0     0.713099     0.744956     0.859071    Uiso  ? Zn
   C97        1.0     0.185054     0.720422     0.856996    Uiso  ? C
   C98        1.0     0.216906     0.725725     0.862716    Uiso  ? C
   C99        1.0     0.234918     0.700670     0.870562    Uiso  ? C
   H49        1.0     0.228401     0.678496     0.868277    Uiso  ? H
   C100       1.0     0.265287     0.705005     0.876371    Uiso  ? C
   H50        1.0     0.278188     0.684518     0.882879    Uiso  ? H
   C101       1.0     0.276681     0.733229     0.876835    Uiso  ? C
   H51        1.0     0.299527     0.736021     0.883303    Uiso  ? H
   C102       1.0     0.260712     0.758034     0.866677    Uiso  ? C
   C103       1.0     0.229735     0.754406     0.861458    Uiso  ? C
   H52        1.0     0.215103     0.772874     0.853226    Uiso  ? H
   C104       1.0     0.276726     0.787503     0.863952    Uiso  ? C
   C105       1.0     0.145812     0.738577     0.790109    Uiso  ? C
   C106       1.0     0.150495     0.750705     0.760245    Uiso  ? C
   C107       1.0     0.150314     0.731629     0.734080    Uiso  ? C
   H53        1.0     0.148393     0.707601     0.737049    Uiso  ? H
   C108       1.0     0.158077     0.743897     0.706493    Uiso  ? C
   H54        1.0     0.157582     0.729109     0.686039    Uiso  ? H
   C109       1.0     0.163787     0.773524     0.704423    Uiso  ? C
   H55        1.0     0.169165     0.783751     0.683153    Uiso  ? H
   C110       1.0     0.163960     0.791694     0.728460    Uiso  ? C
   C111       1.0     0.156166     0.781971     0.756826    Uiso  ? C
   H56        1.0     0.156320     0.796975     0.774914    Uiso  ? H
   C112       1.0     0.170359     0.824043     0.724610    Uiso  ? C
   C113       1.0     0.874448     0.688721     0.829917    Uiso  ? C
   C114       1.0     0.841668     0.682457     0.826718    Uiso  ? C
   C115       1.0     0.831715     0.652991     0.824703    Uiso  ? C
   H57        1.0     0.847697     0.634095     0.824363    Uiso  ? H
   C116       1.0     0.800948     0.646279     0.822670    Uiso  ? C
   H58        1.0     0.795478     0.623912     0.820050    Uiso  ? H
   C117       1.0     0.781138     0.668702     0.826862    Uiso  ? C
   H59        1.0     0.758201     0.661689     0.828559    Uiso  ? H
   C118       1.0     0.790007     0.697843     0.829815    Uiso  ? C
   C119       1.0     0.820667     0.704355     0.830095    Uiso  ? C
   H60        1.0     0.827745     0.725940     0.835114    Uiso  ? H
   C120       1.0     0.768377     0.720626     0.840202    Uiso  ? C
   C121       1.0     0.128852     0.704517     0.897637    Uiso  ? C
   C122       1.0     0.131259     0.697900     0.128918    Uiso  ? C
   C123       1.0     0.147973     0.673457     0.138800    Uiso  ? C
   H61        1.0     0.160799     0.658866     0.125034    Uiso  ? H
   C124       1.0     0.147349     0.665498     0.167983    Uiso  ? C
   H62        1.0     0.159421     0.646070     0.174746    Uiso  ? H
   C125       1.0     0.130703     0.681909     0.189169    Uiso  ? C
   H63        1.0     0.130935     0.676038     0.212414    Uiso  ? H
   C126       1.0     0.114612     0.706842     0.179366    Uiso  ? C
   C127       1.0     0.114614     0.715811     0.149119    Uiso  ? C
   H64        1.0     0.892973     0.731274     0.141849    Uiso  ? H
   C128       1.0     0.889079     0.720318     0.199873    Uiso  ? C
   C129       1.0     0.309141     0.894780     0.874022    Uiso  ? C
   C130       1.0     0.317087     0.131099     0.870474    Uiso  ? C
   C131       1.0     0.340602     0.142295     0.853737    Uiso  ? C
   H65        1.0     0.355952     0.127883     0.843918    Uiso  ? H
   C132       1.0     0.347612     0.173114     0.853069    Uiso  ? C
   H66        1.0     0.364917     0.182175     0.839878    Uiso  ? H
   C133       1.0     0.327287     0.193152     0.867736    Uiso  ? C
   H67        1.0     0.331647     0.215912     0.866841    Uiso  ? H
   C134       1.0     0.303734     0.181672     0.884648    Uiso  ? C
   C135       1.0     0.299116     0.151243     0.885915    Uiso  ? C
   H68        1.0     0.279743     0.143561     0.896101    Uiso  ? H
   C136       1.0     0.282628     0.203203     0.100000    Uiso  ? C
   C137       1.0     0.297796     0.852100     0.821570    Uiso  ? C
   C138       1.0     0.292728     0.864761     0.791118    Uiso  ? C
   C139       1.0     0.316565     0.872876     0.774084    Uiso  ? C
   H69        1.0     0.340214     0.875083     0.781331    Uiso  ? H
   C140       1.0     0.312015     0.878749     0.744089    Uiso  ? C
   H70        1.0     0.330504     0.884551     0.728857    Uiso  ? H
   C141       1.0     0.283544     0.878698     0.732265    Uiso  ? C
   H71        1.0     0.281210     0.884425     0.709846    Uiso  ? H
   C142       1.0     0.258669     0.871094     0.749080    Uiso  ? C
   C143       1.0     0.264320     0.862462     0.778815    Uiso  ? C
   H72        1.0     0.246569     0.859964     0.792079    Uiso  ? H
   C144       1.0     0.227718     0.873370     0.736916    Uiso  ? C
   C145       1.0     0.331749     0.836340     0.125724    Uiso  ? C
   C146       1.0     0.341295     0.836753     0.158130    Uiso  ? C
   C147       1.0     0.371154     0.838153     0.166981    Uiso  ? C
   H73        1.0     0.388445     0.839284     0.150746    Uiso  ? H
   C148       1.0     0.378201     0.838639     0.196836    Uiso  ? C
   H74        1.0     0.401259     0.838368     0.204534    Uiso  ? H
   C149       1.0     0.356503     0.838590     0.219682    Uiso  ? C
   H75        1.0     0.361761     0.838119     0.242624    Uiso  ? H
   C150       1.0     0.326439     0.836644     0.210709    Uiso  ? C
   C151       1.0     0.318900     0.837121     0.179897    Uiso  ? C
   H76        1.0     0.297459     0.836542     0.172326    Uiso  ? H
   C152       1.0     0.300705     0.839679     0.232555    Uiso  ? C
   C153       1.0     0.169317     0.135491     0.687375    Uiso  ? C
   C154       1.0     0.161588     0.165591     0.676720    Uiso  ? C
   C155       1.0     0.155220     0.172801     0.647200    Uiso  ? C
   H77        1.0     0.152606     0.154823     0.630361    Uiso  ? H
   C156       1.0     0.148755     0.202037     0.639195    Uiso  ? C
   H78        1.0     0.142028     0.206836     0.615129    Uiso  ? H
   C157       1.0     0.148551     0.225405     0.659080    Uiso  ? C
   H79        1.0     0.144166     0.248170     0.651538    Uiso  ? H
   C158       1.0     0.155037     0.219986     0.689807    Uiso  ? C
   C159       1.0     0.159528     0.189521     0.698230    Uiso  ? C
   H80        1.0     0.162156     0.182862     0.720907    Uiso  ? H
   C160       1.0     0.151502     0.243393     0.711991    Uiso  ? C
   C161       1.0     0.120014     0.871524     0.714337    Uiso  ? C
   C162       1.0     0.883410     0.865192     0.707034    Uiso  ? C
   C163       1.0     0.874075     0.849378     0.681313    Uiso  ? C
   H81        1.0     0.888571     0.836386     0.669010    Uiso  ? H
   C164       1.0     0.842964     0.847964     0.674819    Uiso  ? C
   H82        1.0     0.835864     0.835046     0.655725    Uiso  ? H
   C165       1.0     0.822509     0.866259     0.689237    Uiso  ? C
   H83        1.0     0.799792     0.867308     0.682562    Uiso  ? H
   C166       1.0     0.831826     0.881310     0.714878    Uiso  ? C
   C167       1.0     0.861785     0.877930     0.724563    Uiso  ? C
   H84        1.0     0.869018     0.889970     0.744717    Uiso  ? H
   C168       1.0     0.812364     0.105806     0.731792    Uiso  ? C
   C169       1.0     0.260552     0.113561     0.243795    Uiso  ? C
   C170       1.0     0.265736     0.145333     0.243449    Uiso  ? C
   C171       1.0     0.283728     0.160277     0.263255    Uiso  ? C
   H85        1.0     0.294439     0.148320     0.282532    Uiso  ? H
   C172       1.0     0.289258     0.190546     0.260794    Uiso  ? C
   H86        1.0     0.305620     0.202695     0.272858    Uiso  ? H
   C173       1.0     0.278430     0.206733     0.235825    Uiso  ? C
   H87        1.0     0.286444     0.228469     0.232080    Uiso  ? H
   C174       1.0     0.261234     0.192542     0.215335    Uiso  ? C
   C175       1.0     0.254049     0.161745     0.219632    Uiso  ? C
   H88        1.0     0.241350     0.149549     0.202915    Uiso  ? H
   C176       1.0     0.253634     0.208262     0.188540    Uiso  ? C
   C177       1.0     0.210965     0.812824     0.258653    Uiso  ? C
   C178       1.0     0.194368     0.785643     0.261995    Uiso  ? C
   C179       1.0     0.208325     0.759543     0.269457    Uiso  ? C
   H89        1.0     0.231252     0.759203     0.271680    Uiso  ? H
   C180       1.0     0.193345     0.734161     0.278337    Uiso  ? C
   H90        1.0     0.204375     0.715787     0.287538    Uiso  ? H
   C181       1.0     0.162672     0.733717     0.275587    Uiso  ? C
   H91        1.0     0.151694     0.713781     0.281913    Uiso  ? H
   C182       1.0     0.147501     0.758455     0.263785    Uiso  ? C
   C183       1.0     0.163731     0.785359     0.258298    Uiso  ? C
   H92        1.0     0.152723     0.806780     0.252857    Uiso  ? H
   C184       1.0     0.115336     0.754326     0.258311    Uiso  ? C
   C185       1.0     0.802738     0.753731     0.216765    Uiso  ? C
   C186       1.0     0.774785     0.748362     0.201333    Uiso  ? C
   C187       1.0     0.751560     0.733480     0.214467    Uiso  ? C
   H93        1.0     0.753109     0.726983     0.238071    Uiso  ? H
   C188       1.0     0.725362     0.726493     0.198641    Uiso  ? C
   H94        1.0     0.707283     0.715119     0.210590    Uiso  ? H
   C189       1.0     0.723612     0.730602     0.167458    Uiso  ? C
   H95        1.0     0.703879     0.723619     0.155971    Uiso  ? H
   C190       1.0     0.747629     0.743156     0.152447    Uiso  ? C
   C191       1.0     0.772695     0.752993     0.170434    Uiso  ? C
   H96        1.0     0.791262     0.761981     0.159710    Uiso  ? H
   C192       1.0     0.745778     0.750337     0.120540    Uiso  ? C
   O55        1.0     0.169538     0.741226     0.845578    Uiso  ? O
   O56        1.0     0.172531     0.694847     0.860520    Uiso  ? O
   O57        1.0     0.155116     0.752236     0.813518    Uiso  ? O
   O58        1.0     0.135922     0.713226     0.792993    Uiso  ? O
   O59        1.0     0.882123     0.714904     0.835052    Uiso  ? O
   O60        1.0     0.893541     0.668527     0.829389    Uiso  ? O
   O61        1.0     0.121232     0.729821     0.889425    Uiso  ? O
   O62        1.0     0.138456     0.687387     0.877383    Uiso  ? O
   O63        1.0     0.282561     0.885798     0.881113    Uiso  ? O
   O64        1.0     0.328893     0.874928     0.867465    Uiso  ? O
   O65        1.0     0.276968     0.839688     0.835660    Uiso  ? O
   O66        1.0     0.323730     0.852242     0.832580    Uiso  ? O
   O67        1.0     0.261369     0.810051     0.854902    Uiso  ? O
   O68        1.0     0.301650     0.791326     0.876635    Uiso  ? O
   O69        1.0     0.304484     0.834800     0.119691    Uiso  ? O
   O70        1.0     0.350922     0.839613     0.105989    Uiso  ? O
   O71        1.0     0.171698     0.129476     0.714896    Uiso  ? O
   O72        1.0     0.170904     0.114277     0.668661    Uiso  ? O
   O73        1.0     0.127745     0.876923     0.741677    Uiso  ? O
   O74        1.0     0.139631     0.866885     0.693521    Uiso  ? O
   O75        1.0     0.179440     0.841630     0.745376    Uiso  ? O
   O76        1.0     0.164272     0.834733     0.699517    Uiso  ? O
   O77        1.0     0.206388     0.863461     0.752040    Uiso  ? O
   O78        1.0     0.221302     0.888714     0.714350    Uiso  ? O
   O79        1.0     0.241872     0.897015     0.226138    Uiso  ? O
   O80        1.0     0.267859     0.894123     0.267098    Uiso  ? O
   O81        1.0     0.274667     0.844718     0.222416    Uiso  ? O
   O82        1.0     0.303909     0.841188     0.260097    Uiso  ? O
   O83        1.0     0.197824     0.837622     0.258842    Uiso  ? O
   O84        1.0     0.239444     0.812760     0.258480    Uiso  ? O
   O85        1.0     0.204483     0.867797     0.269681    Uiso  ? O
   O86        1.0     0.241756     0.885803     0.295244    Uiso  ? O
   O87        1.0     0.892875     0.776870     0.251366    Uiso  ? O
   O88        1.0     0.104054     0.728647     0.256268    Uiso  ? O
   O89        1.0     0.875007     0.743183     0.191908    Uiso  ? O
   O90        1.0     0.889345     0.713628     0.228002    Uiso  ? O
   O91        1.0     0.815424     0.778893     0.213699    Uiso  ? O
   O92        1.0     0.815415     0.732726     0.228428    Uiso  ? O
   O93        1.0     0.855428     0.783782     0.265263    Uiso  ? O
   O94        1.0     0.848116     0.745147     0.295140    Uiso  ? O
   O95        1.0     0.211525     0.257642     0.143782    Uiso  ? O
   O96        1.0     0.248280     0.288582     0.154720    Uiso  ? O
   O97        1.0     0.217475     0.249677     0.101923    Uiso  ? O
   O98        1.0     0.264635     0.256597     0.893450    Uiso  ? O
   O99        1.0     0.264154     0.191615     0.118586    Uiso  ? O
   O100       1.0     0.283544     0.230508     0.896670    Uiso  ? O
   O101       1.0     0.227205     0.209307     0.179968    Uiso  ? O
   O102       1.0     0.274276     0.218910     0.171856    Uiso  ? O
   O103       1.0     0.108406     0.787960     0.846355    Uiso  ? O
   O104       1.0     0.234543     0.838481     0.106510    Uiso  ? O
   O105       1.0     0.178816     0.117326     0.787854    Uiso  ? O
   O106       1.0     0.207719     0.843456     0.194991    Uiso  ? O
   O107       1.0     0.872480     0.813854     0.193595    Uiso  ? O
   O108       1.0     0.189407     0.185419     0.121577    Uiso  ? O
   Zn13       1.0     0.122795     0.743966     0.846346    Uiso  ? Zn
   Zn14       1.0     0.139268     0.681164     0.827942    Uiso  ? Zn
   Zn15       1.0     0.274398     0.842348     0.885025    Uiso  ? Zn
   Zn16       1.0     0.331907     0.825387     0.867247    Uiso  ? Zn
   Zn17       1.0     0.169773     0.890853     0.747782    Uiso  ? Zn
   Zn18       1.0     0.186904     0.872059     0.687011    Uiso  ? Zn
   Zn19       1.0     0.229293     0.855801     0.231385    Uiso  ? Zn
   Zn20       1.0     0.264815     0.847146     0.281166    Uiso  ? Zn
   Zn21       1.0     0.862208     0.778749     0.217510    Uiso  ? Zn
   Zn22       1.0     0.853262     0.720413     0.254286    Uiso  ? Zn
   Zn23       1.0     0.226077     0.213222     0.133637    Uiso  ? Zn
   Zn24       1.0     0.276874     0.252989     0.139609    Uiso  ? Zn
   H97        1.0     0.230338     0.850316     0.124166    Uiso  ? H
   H98        1.0     0.221508     0.821254     0.101604    Uiso  ? H
   H99        1.0     0.794331     0.146003     0.154267    Uiso  ? H
   H100       1.0     0.790273     0.158844     0.118762    Uiso  ? H
   H101       1.0     0.821233     0.797565     0.848527    Uiso  ? H
   H102       1.0     0.811210     0.823601     0.871678    Uiso  ? H
   H103       1.0     0.821656     0.138973     0.829149    Uiso  ? H
   H104       1.0     0.810833     0.174826     0.822364    Uiso  ? H
   H105       1.0     0.187779     0.176378     0.102243    Uiso  ? H
   H106       1.0     0.175743     0.179990     0.136915    Uiso  ? H
   H107       1.0     0.890040     0.213502     0.117724    Uiso  ? H
   H108       1.0     0.858181     0.203419     0.134425    Uiso  ? H
   H109       1.0     0.895964     0.197107     0.802607    Uiso  ? H
   H110       1.0     0.123101     0.179253     0.778595    Uiso  ? H
   H111       1.0     0.186714     0.842650     0.194919    Uiso  ? H
   H112       1.0     0.219444     0.841552     0.176056    Uiso  ? H
   H113       1.0     0.893170     0.123144     0.210908    Uiso  ? H
   H114       1.0     0.864015     0.893021     0.208873    Uiso  ? H
   H115       1.0     0.866553     0.834875     0.199573    Uiso  ? H
   H116       1.0     0.878925     0.808801     0.172995    Uiso  ? H
   H117       1.0     0.164060     0.125836     0.800624    Uiso  ? H
   H118       1.0     0.198989     0.116193     0.797025    Uiso  ? H
   H119       1.0     0.886163     0.793682     0.857835    Uiso  ? H
   H120       1.0     0.115270     0.800629     0.830894    Uiso  ? H
   C193       1.0     0.706821     0.447697     0.382758    Uiso  ? C
   C194       1.0     0.683932     0.445951     0.404960    Uiso  ? C
   C195       1.0     0.653702     0.445520     0.398683    Uiso  ? C
   H121       1.0     0.645303     0.448238     0.376204    Uiso  ? H
   C196       1.0     0.632288     0.441739     0.421087    Uiso  ? C
   H122       1.0     0.608484     0.442931     0.414575    Uiso  ? H
   C197       1.0     0.641245     0.439119     0.450030    Uiso  ? C
   H123       1.0     0.624950     0.436385     0.466891    Uiso  ? H
   C198       1.0     0.671366     0.442585     0.457514    Uiso  ? C
   C199       1.0     0.692339     0.444508     0.434831    Uiso  ? C
   H124       1.0     0.716427     0.444267     0.439131    Uiso  ? H
   C200       1.0     0.681624     0.442673     0.488126    Uiso  ? C
   C201       1.0     0.749819     0.517877     0.348577    Uiso  ? C
   C202       1.0     0.743022     0.549476     0.347217    Uiso  ? C
   C203       1.0     0.735973     0.564584     0.321019    Uiso  ? C
   H125       1.0     0.736641     0.556443     0.298078    Uiso  ? H
   C204       1.0     0.728451     0.594488     0.323100    Uiso  ? C
   H126       1.0     0.721195     0.605250     0.303960    Uiso  ? H
   C205       1.0     0.729523     0.609958     0.349631    Uiso  ? C
   H127       1.0     0.718876     0.631987     0.351264    Uiso  ? H
   C206       1.0     0.733170     0.592141     0.375980    Uiso  ? C
   C207       1.0     0.743444     0.563610     0.374642    Uiso  ? C
   H128       1.0     0.747080     0.551582     0.395335    Uiso  ? H
   C208       1.0     0.728287     0.605977     0.405817    Uiso  ? C
   C209       1.0     0.794240     0.477787     0.310621    Uiso  ? C
   C210       1.0     0.817050     0.490430     0.290565    Uiso  ? C
   C211       1.0     0.805536     0.505592     0.265152    Uiso  ? C
   H129       1.0     0.781750     0.505427     0.259603    Uiso  ? H
   C212       1.0     0.826587     0.522173     0.247712    Uiso  ? C
   H130       1.0     0.817900     0.535051     0.228130    Uiso  ? H
   C213       1.0     0.856508     0.522841     0.254648    Uiso  ? C
   H131       1.0     0.870937     0.538519     0.241521    Uiso  ? H
   C214       1.0     0.865981     0.509124     0.281037    Uiso  ? C
   C215       1.0     0.847431     0.490275     0.296964    Uiso  ? C
   H132       1.0     0.854110     0.480751     0.317764    Uiso  ? H
   C216       1.0     0.896976     0.513371     0.289522    Uiso  ? C
   C217       1.0     0.785815     0.409830     0.336684    Uiso  ? C
   C218       1.0     0.801165     0.384013     0.326694    Uiso  ? C
   C219       1.0     0.787437     0.359273     0.314562    Uiso  ? C
   H133       1.0     0.764268     0.358669     0.309210    Uiso  ? H
   C220       1.0     0.802519     0.331937     0.313315    Uiso  ? C
   H134       1.0     0.789809     0.312803     0.306864    Uiso  ? H
   C221       1.0     0.833567     0.331608     0.318243    Uiso  ? C
   H135       1.0     0.844746     0.309905     0.314655    Uiso  ? H
   C222       1.0     0.847737     0.356042     0.328203    Uiso  ? C
   C223       1.0     0.832480     0.383002     0.331456    Uiso  ? C
   H136       1.0     0.844096     0.402159     0.340212    Uiso  ? H
   C224       1.0     0.878522     0.353389     0.336702    Uiso  ? C
   C225       1.0     0.721448     0.461978     0.593349    Uiso  ? C
   C226       1.0     0.730124     0.467886     0.624253    Uiso  ? C
   C227       1.0     0.712992     0.486589     0.642232    Uiso  ? C
   H137       1.0     0.693606     0.497020     0.632871    Uiso  ? H
   C228       1.0     0.723607     0.492303     0.671293    Uiso  ? C
   H138       1.0     0.712777     0.507759     0.686308    Uiso  ? H
   C229       1.0     0.750992     0.479451     0.679958    Uiso  ? C
   H139       1.0     0.758499     0.487208     0.702306    Uiso  ? H
   C230       1.0     0.768089     0.461618     0.661969    Uiso  ? C
   C231       1.0     0.757647     0.456058     0.633657    Uiso  ? C
   H140       1.0     0.772724     0.443315     0.620161    Uiso  ? H
   C232       1.0     0.796519     0.449989     0.672959    Uiso  ? C
   C233       1.0     0.680799     0.500042     0.522647    Uiso  ? C
   C234       1.0     0.668433     0.528632     0.511410    Uiso  ? C
   C235       1.0     0.639874     0.536256     0.517100    Uiso  ? C
   H141       1.0     0.626636     0.518834     0.526412    Uiso  ? H
   C236       1.0     0.630428     0.565998     0.512988    Uiso  ? C
   H142       1.0     0.607476     0.571654     0.515564    Uiso  ? H
   C237       1.0     0.648621     0.587190     0.500256    Uiso  ? C
   H143       1.0     0.641332     0.608600     0.494986    Uiso  ? H
   C238       1.0     0.677382     0.578563     0.492164    Uiso  ? C
   C239       1.0     0.687593     0.549547     0.497334    Uiso  ? C
   H144       1.0     0.709189     0.543332     0.490766    Uiso  ? H
   C240       1.0     0.697427     0.599842     0.477564    Uiso  ? C
   C241       1.0     0.724745     0.399188     0.526452    Uiso  ? C
   C242       1.0     0.733523     0.369402     0.518415    Uiso  ? C
   C243       1.0     0.713642     0.351161     0.503021    Uiso  ? C
   H145       1.0     0.690985     0.359140     0.496413    Uiso  ? H
   C244       1.0     0.721286     0.322611     0.496165    Uiso  ? C
   H146       1.0     0.707134     0.309695     0.482294    Uiso  ? H
   C245       1.0     0.748867     0.310829     0.507106    Uiso  ? C
   H147       1.0     0.754995     0.286967     0.503456    Uiso  ? H
   C246       1.0     0.767902     0.329292     0.524329    Uiso  ? C
   C247       1.0     0.759777     0.358729     0.531476    Uiso  ? C
   H148       1.0     0.773844     0.373523     0.544780    Uiso  ? H
   C248       1.0     0.795330     0.317030     0.535296    Uiso  ? C
   C249       1.0     0.739614     0.639493     0.514273    Uiso  ? C
   C250       1.0     0.742616     0.644193     0.546156    Uiso  ? C
   C251       1.0     0.718271     0.648615     0.564494    Uiso  ? C
   H149       1.0     0.695685     0.646591     0.554135    Uiso  ? H
   C252       1.0     0.721084     0.650752     0.596144    Uiso  ? C
   H150       1.0     0.702854     0.649487     0.610656    Uiso  ? H
   C253       1.0     0.748250     0.654593     0.606972    Uiso  ? C
   H151       1.0     0.750324     0.656767     0.630475    Uiso  ? H
   C254       1.0     0.772937     0.650900     0.589224    Uiso  ? C
   C255       1.0     0.769924     0.646580     0.559023    Uiso  ? C
   H152       1.0     0.788092     0.643833     0.544287    Uiso  ? H
   C256       1.0     0.803089     0.651111     0.601139    Uiso  ? C
   C257       1.0     0.762160     0.689225     0.449071    Uiso  ? C
   C258       1.0     0.786481     0.710650     0.447336    Uiso  ? C
   C259       1.0     0.779600     0.741488     0.449606    Uiso  ? C
   H153       1.0     0.757072     0.749476     0.455144    Uiso  ? H
   C260       1.0     0.802931     0.760969     0.448057    Uiso  ? C
   H154       1.0     0.799029     0.784261     0.453037    Uiso  ? H
   C261       1.0     0.832058     0.752141     0.440919    Uiso  ? C
   H155       1.0     0.848944     0.768800     0.438889    Uiso  ? H
   C262       1.0     0.838671     0.721021     0.437999    Uiso  ? C
   C263       1.0     0.815892     0.700403     0.442257    Uiso  ? C
   H156       1.0     0.818985     0.675594     0.441336    Uiso  ? H
   C264       1.0     0.868661     0.710306     0.434560    Uiso  ? C
   C265       1.0     0.851141     0.317072     0.592738    Uiso  ? C
   C266       1.0     0.855809     0.327468     0.623663    Uiso  ? C
   C267       1.0     0.865745     0.306162     0.644977    Uiso  ? C
   H157       1.0     0.866597     0.283960     0.639028    Uiso  ? H
   C268       1.0     0.869398     0.315708     0.674046    Uiso  ? C
   H158       1.0     0.876170     0.298769     0.689507    Uiso  ? H
   C269       1.0     0.867079     0.345130     0.682121    Uiso  ? C
   H159       1.0     0.870538     0.348953     0.705457    Uiso  ? H
   C270       1.0     0.858246     0.366085     0.661268    Uiso  ? C
   C271       1.0     0.852374     0.357416     0.631708    Uiso  ? C
   H160       1.0     0.844012     0.373389     0.616107    Uiso  ? H
   C272       1.0     0.853415     0.396395     0.670663    Uiso  ? C
   C273       1.0     0.852701     0.276046     0.485323    Uiso  ? C
   C274       1.0     0.858820     0.266642     0.454543    Uiso  ? C
   C275       1.0     0.849230     0.239583     0.442359    Uiso  ? C
   H161       1.0     0.838771     0.223167     0.455608    Uiso  ? H
   C276       1.0     0.853954     0.235134     0.412720    Uiso  ? C
   H162       1.0     0.846918     0.213616     0.403381    Uiso  ? H
   C277       1.0     0.868898     0.256125     0.395224    Uiso  ? C
   H163       1.0     0.873227     0.251521     0.372629    Uiso  ? H
   C278       1.0     0.878912     0.282822     0.406773    Uiso  ? C
   C279       1.0     0.872267     0.288152     0.436289    Uiso  ? C
   H164       1.0     0.879287     0.308936     0.445406    Uiso  ? H
   C280       1.0     0.897557     0.304760     0.389823    Uiso  ? C
   C281       1.0     0.143077     0.370997     0.309645    Uiso  ? C
   C282       1.0     0.147405     0.390938     0.285239    Uiso  ? C
   C283       1.0     0.148265     0.380461     0.256232    Uiso  ? C
   H165       1.0     0.147778     0.356775     0.250743    Uiso  ? H
   C284       1.0     0.153595     0.400488     0.234041    Uiso  ? C
   H166       1.0     0.156841     0.391515     0.211782    Uiso  ? H
   C285       1.0     0.157139     0.430106     0.238350    Uiso  ? C
   H167       1.0     0.164124     0.445127     0.220318    Uiso  ? H
   C286       1.0     0.155481     0.442077     0.267588    Uiso  ? C
   C287       1.0     0.149196     0.421588     0.290585    Uiso  ? C
   H168       1.0     0.143712     0.431160     0.311045    Uiso  ? H
   C288       1.0     0.156364     0.474106     0.275006    Uiso  ? C
   O109       1.0     0.733508     0.440674     0.388641    Uiso  ? O
   O110       1.0     0.700176     0.456062     0.356525    Uiso  ? O
   O111       1.0     0.762879     0.505592     0.369896    Uiso  ? O
   O112       1.0     0.741613     0.501382     0.326220    Uiso  ? O
   O113       1.0     0.801629     0.463564     0.333466    Uiso  ? O
   O114       1.0     0.767465     0.484006     0.307406    Uiso  ? O
   O115       1.0     0.800147     0.431801     0.347798    Uiso  ? O
   O116       1.0     0.758880     0.414560     0.333848    Uiso  ? O
   O117       1.0     0.740530     0.450408     0.576581    Uiso  ? O
   O118       1.0     0.695822     0.468417     0.584593    Uiso  ? O
   O119       1.0     0.708417     0.497624     0.522527    Uiso  ? O
   O120       1.0     0.663818     0.479107     0.532634    Uiso  ? O
   O121       1.0     0.708912     0.443776     0.493398    Uiso  ? O
   O122       1.0     0.662837     0.447668     0.508717    Uiso  ? O
   O123       1.0     0.734431     0.420886     0.510552    Uiso  ? O
   O124       1.0     0.704654     0.403255     0.545468    Uiso  ? O
   O125       1.0     0.757363     0.621731     0.501559    Uiso  ? O
   O126       1.0     0.721035     0.653745     0.497616    Uiso  ? O
   O127       1.0     0.767976     0.661995     0.449597    Uiso  ? O
   O128       1.0     0.736084     0.696041     0.454237    Uiso  ? O
   O129       1.0     0.731182     0.590789     0.430271    Uiso  ? O
   O130       1.0     0.726689     0.634155     0.408610    Uiso  ? O
   O131       1.0     0.721335     0.589462     0.465416    Uiso  ? O
   O132       1.0     0.693120     0.627760     0.479224    Uiso  ? O
   O133       1.0     0.838498     0.334695     0.575141    Uiso  ? O
   O134       1.0     0.856699     0.290530     0.585072    Uiso  ? O
   O135       1.0     0.815279     0.334395     0.546946    Uiso  ? O
   O136       1.0     0.803089     0.290710     0.528145    Uiso  ? O
   O137       1.0     0.847056     0.303016     0.490657    Uiso  ? O
   O138       1.0     0.859275     0.257549     0.506618    Uiso  ? O
   O139       1.0     0.895933     0.304906     0.543952    Uiso  ? O
   O140       1.0     0.883738     0.259848     0.531003    Uiso  ? O
   O141       1.0     0.112817     0.328091     0.401213    Uiso  ? O
   O142       1.0     0.103560     0.302874     0.361608    Uiso  ? O
   O143       1.0     0.892585     0.377053     0.346256    Uiso  ? O
   O144       1.0     0.890721     0.327514     0.339855    Uiso  ? O
   O145       1.0     0.133818     0.381007     0.334085    Uiso  ? O
   O146       1.0     0.147476     0.343477     0.306596    Uiso  ? O
   O147       1.0     0.158645     0.385520     0.397443    Uiso  ? O
   O148       1.0     0.171865     0.344555     0.374220    Uiso  ? O
   O149       1.0     0.894098     0.454198     0.693703    Uiso  ? O
   O150       1.0     0.876589     0.461239     0.739010    Uiso  ? O
   O151       1.0     0.848116     0.496811     0.664592    Uiso  ? O
   O152       1.0     0.830698     0.486567     0.710820    Uiso  ? O
   O153       1.0     0.815967     0.439756     0.655328    Uiso  ? O
   O154       1.0     0.804369     0.458075     0.699439    Uiso  ? O
   O155       1.0     0.839514     0.414290     0.653156    Uiso  ? O
   O156       1.0     0.861649     0.405803     0.695521    Uiso  ? O
   O157       1.0     0.793559     0.457014     0.416010    Uiso  ? O
   O158       1.0     0.773609     0.481208     0.520459    Uiso  ? O
   O159       1.0     0.800937     0.597945     0.451774    Uiso  ? O
   O160       1.0     0.872096     0.362694     0.507807    Uiso  ? O
   O161       1.0     0.881812     0.390104     0.398961    Uiso  ? O
   O162       1.0     0.887029     0.450209     0.618823    Uiso  ? O
   Zn25       1.0     0.773549     0.460202     0.373648    Uiso  ? Zn
   Zn26       1.0     0.734921     0.454018     0.324731    Uiso  ? Zn
   Zn27       1.0     0.734164     0.460948     0.530945    Uiso  ? Zn
   Zn28       1.0     0.677952     0.439902     0.553984    Uiso  ? Zn
   Zn29       1.0     0.758949     0.616064     0.457931    Uiso  ? Zn
   Zn30       1.0     0.710693     0.657865     0.449202    Uiso  ? Zn
   Zn31       1.0     0.856861     0.325906     0.530444    Uiso  ? Zn
   Zn32       1.0     0.839445     0.268601     0.547806    Uiso  ? Zn
   Zn33       1.0     0.122799     0.367773     0.380850    Uiso  ? Zn
   Zn34       1.0     0.142865     0.321164     0.344541    Uiso  ? Zn
   Zn35       1.0     0.862606     0.453757     0.658270    Uiso  ? Zn
   Zn36       1.0     0.842259     0.439924     0.719979    Uiso  ? Zn
   C289       1.0     0.278106     0.545877     0.620721    Uiso  ? C
   C290       1.0     0.301071     0.549554     0.598093    Uiso  ? C
   C291       1.0     0.330331     0.551433     0.607026    Uiso  ? C
   H169       1.0     0.336429     0.549736     0.630961    Uiso  ? H
   C292       1.0     0.354033     0.550419     0.586994    Uiso  ? C
   H170       1.0     0.376557     0.548509     0.593597    Uiso  ? H
   C293       1.0     0.349311     0.550672     0.557163    Uiso  ? C
   H171       1.0     0.368518     0.551322     0.542095    Uiso  ? H
   C294       1.0     0.319372     0.553483     0.546382    Uiso  ? C
   C295       1.0     0.296420     0.549780     0.566485    Uiso  ? C
   H172       1.0     0.273397     0.553384     0.559819    Uiso  ? H
   C296       1.0     0.312219     0.553867     0.513922    Uiso  ? C
   C297       1.0     0.257120     0.484712     0.652009    Uiso  ? C
   C298       1.0     0.266537     0.451904     0.649874    Uiso  ? C
   C299       1.0     0.278430     0.436327     0.673177    Uiso  ? C
   H173       1.0     0.278013     0.447797     0.693839    Uiso  ? H
   C300       1.0     0.286451     0.406426     0.670419    Uiso  ? C
   H174       1.0     0.293088     0.395425     0.689914    Uiso  ? H
   C301       1.0     0.280220     0.391537     0.642838    Uiso  ? C
   H175       1.0     0.285350     0.368459     0.640098    Uiso  ? H
   C302       1.0     0.269920     0.409135     0.618335    Uiso  ? C
   C303       1.0     0.265374     0.439638     0.621706    Uiso  ? C
   H176       1.0     0.256576     0.452459     0.603107    Uiso  ? H
   C304       1.0     0.257131     0.392571     0.592126    Uiso  ? C
   C305       1.0     0.202549     0.500129     0.691777    Uiso  ? C
   C306       1.0     0.183662     0.485810     0.714945    Uiso  ? C
   C307       1.0     0.193502     0.478568     0.744589    Uiso  ? C
   H177       1.0     0.216166     0.479593     0.750844    Uiso  ? H
   C308       1.0     0.174836     0.469748     0.766356    Uiso  ? C
   H178       1.0     0.183714     0.465894     0.788305    Uiso  ? H
   C309       1.0     0.145829     0.464092     0.758510    Uiso  ? C
   H179       1.0     0.129968     0.453732     0.774574    Uiso  ? H
   C310       1.0     0.134911     0.469462     0.729558    Uiso  ? C
   C311       1.0     0.154314     0.479791     0.707700    Uiso  ? C
   H180       1.0     0.146048     0.483931     0.685882    Uiso  ? H
   C312       1.0     0.103713     0.461152     0.720148    Uiso  ? C
   C313       1.0     0.197013     0.582544     0.670439    Uiso  ? C
   C314       1.0     0.177648     0.606843     0.680053    Uiso  ? C
   C315       1.0     0.180618     0.619435     0.709335    Uiso  ? C
   H181       1.0     0.198752     0.612441     0.722220    Uiso  ? H
   C316       1.0     0.158326     0.638206     0.721381    Uiso  ? C
   H182       1.0     0.160522     0.649851     0.742609    Uiso  ? H
   C317       1.0     0.134483     0.644852     0.703677    Uiso  ? C
   H183       1.0     0.117263     0.658078     0.714607    Uiso  ? H
   C318       1.0     0.132392     0.635042     0.674015    Uiso  ? C
   C319       1.0     0.151435     0.613595     0.664312    Uiso  ? C
   H184       1.0     0.147387     0.603770     0.642519    Uiso  ? H
   C320       1.0     0.106343     0.644168     0.657085    Uiso  ? C
   C321       1.0     0.280418     0.528623     0.410168    Uiso  ? C
   C322       1.0     0.274908     0.519688     0.379432    Uiso  ? C
   C323       1.0     0.297814     0.511476     0.360210    Uiso  ? C
   H185       1.0     0.319599     0.512821     0.368030    Uiso  ? H
   C324       1.0     0.292489     0.502281     0.331028    Uiso  ? C
   H186       1.0     0.312725     0.500293     0.318474    Uiso  ? H
   C325       1.0     0.264784     0.505603     0.319763    Uiso  ? C
   H187       1.0     0.261735     0.503552     0.295366    Uiso  ? H
   C326       1.0     0.241251     0.514866     0.338368    Uiso  ? C
   C327       1.0     0.246179     0.520615     0.367830    Uiso  ? C
   H188       1.0     0.229025     0.522251     0.384152    Uiso  ? H
   C328       1.0     0.210213     0.515803     0.327218    Uiso  ? C
   C329       1.0     0.300776     0.498871     0.475871    Uiso  ? C
   C330       1.0     0.310701     0.468110     0.483959    Uiso  ? C
   C331       1.0     0.336056     0.456745     0.468782    Uiso  ? C
   H189       1.0     0.351541     0.470329     0.457212    Uiso  ? H
   C332       1.0     0.342735     0.425690     0.469307    Uiso  ? C
   H190       1.0     0.361136     0.416446     0.456658    Uiso  ? H
   C333       1.0     0.323923     0.407542     0.486597    Uiso  ? C
   H191       1.0     0.327644     0.384049     0.488441    Uiso  ? H
   C334       1.0     0.299746     0.419293     0.503942    Uiso  ? C
   C335       1.0     0.292462     0.449301     0.501843    Uiso  ? C
   H192       1.0     0.273360     0.458423     0.512899    Uiso  ? H
   C336       1.0     0.280640     0.400100     0.521841    Uiso  ? C
   C337       1.0     0.263530     0.605773     0.465089    Uiso  ? C
   C338       1.0     0.255019     0.637161     0.463141    Uiso  ? C
   C339       1.0     0.278507     0.657850     0.460933    Uiso  ? C
   H193       1.0     0.299891     0.651830     0.466787    Uiso  ? H
   C340       1.0     0.270941     0.685355     0.448333    Uiso  ? C
   H194       1.0     0.287219     0.702609     0.444991    Uiso  ? H
   C341       1.0     0.240853     0.692435     0.440580    Uiso  ? C
   H195       1.0     0.235306     0.712021     0.428622    Uiso  ? H
   C342       1.0     0.217596     0.671887     0.445288    Uiso  ? C
   C343       1.0     0.225359     0.645245     0.455950    Uiso  ? C
   H196       1.0     0.209136     0.628006     0.460385    Uiso  ? H
   C344       1.0     0.185884     0.679124     0.438201    Uiso  ? C
   C345       1.0     0.237088     0.360114     0.485343    Uiso  ? C
   C346       1.0     0.237529     0.359051     0.452109    Uiso  ? C
   C347       1.0     0.261387     0.350251     0.433692    Uiso  ? C
   H197       1.0     0.281789     0.344600     0.443558    Uiso  ? H
   C348       1.0     0.259616     0.348298     0.403143    Uiso  ? C
   H198       1.0     0.279657     0.341564     0.389617    Uiso  ? H
   C349       1.0     0.232826     0.356293     0.389120    Uiso  ? C
   H199       1.0     0.230092     0.352874     0.364985    Uiso  ? H
   C350       1.0     0.208481     0.365177     0.405923    Uiso  ? C
   C351       1.0     0.210807     0.365455     0.436657    Uiso  ? C
   H200       1.0     0.193483     0.375036     0.451230    Uiso  ? H
   C352       1.0     0.178424     0.366424     0.391239    Uiso  ? C
   C353       1.0     0.213294     0.312038     0.550067    Uiso  ? C
   C354       1.0     0.190358     0.287413     0.553478    Uiso  ? C
   C355       1.0     0.200056     0.258390     0.550842    Uiso  ? C
   H201       1.0     0.223291     0.253946     0.553274    Uiso  ? H
   C356       1.0     0.180620     0.235252     0.547562    Uiso  ? C
   H202       1.0     0.188590     0.213579     0.546566    Uiso  ? H
   C357       1.0     0.150256     0.240999     0.544207    Uiso  ? C
   H203       1.0     0.135502     0.223576     0.535536    Uiso  ? H
   C358       1.0     0.139742     0.270687     0.544365    Uiso  ? C
   C359       1.0     0.160007     0.293129     0.552109    Uiso  ? C
   H204       1.0     0.150795     0.314332     0.554687    Uiso  ? H
   C360       1.0     0.108655     0.278453     0.539432    Uiso  ? C
   C361       1.0     0.127264     0.668179     0.370399    Uiso  ? C
   C362       1.0     0.124505     0.656319     0.341019    Uiso  ? C
   C363       1.0     0.115074     0.673540     0.316969    Uiso  ? C
   H205       1.0     0.110632     0.696403     0.320404    Uiso  ? H
   C364       1.0     0.110401     0.661169     0.288814    Uiso  ? C
   H206       1.0     0.102443     0.674456     0.270377    Uiso  ? H
   C365       1.0     0.117553     0.630367     0.284492    Uiso  ? C
   H207       1.0     0.113446     0.621241     0.261074    Uiso  ? H
   C366       1.0     0.128068     0.612197     0.308511    Uiso  ? C
   C367       1.0     0.130257     0.625457     0.336728    Uiso  ? C
   H208       1.0     0.138642     0.611389     0.354794    Uiso  ? H
   C368       1.0     0.137827     0.580904     0.304958    Uiso  ? C
   C369       1.0     0.130272     0.702629     0.477684    Uiso  ? C
   C370       1.0     0.127016     0.710745     0.508675    Uiso  ? C
   C371       1.0     0.131258     0.739475     0.517026    Uiso  ? C
   H209       1.0     0.136584     0.756873     0.500378    Uiso  ? H
   C372       1.0     0.129095     0.748499     0.547314    Uiso  ? C
   H210       1.0     0.134010     0.771875     0.551452    Uiso  ? H
   C373       1.0     0.117775     0.727644     0.567592    Uiso  ? C
   H211       1.0     0.112359     0.735370     0.591245    Uiso  ? H
   C374       1.0     0.111736     0.697317     0.558752    Uiso  ? C
   C375       1.0     0.117889     0.689722     0.529550    Uiso  ? C
   H212       1.0     0.113519     0.668782     0.520667    Uiso  ? H
   C376       1.0     0.893315     0.677176     0.578780    Uiso  ? C
   C377       1.0     0.838555     0.609783     0.653593    Uiso  ? C
   C378       1.0     0.826205     0.587015     0.674324    Uiso  ? C
   C379       1.0     0.804975     0.595376     0.695399    Uiso  ? C
   H213       1.0     0.794376     0.616224     0.696311    Uiso  ? H
   C380       1.0     0.795035     0.573052     0.716948    Uiso  ? C
   H214       1.0     0.778198     0.579766     0.733292    Uiso  ? H
   C381       1.0     0.806042     0.543778     0.715675    Uiso  ? C
   H215       1.0     0.798749     0.527696     0.731921    Uiso  ? H
   C382       1.0     0.826447     0.536272     0.693528    Uiso  ? C
   C383       1.0     0.836126     0.557954     0.673161    Uiso  ? C
   H216       1.0     0.853371     0.551542     0.657953    Uiso  ? H
   C384       1.0     0.837044     0.505454     0.689283    Uiso  ? C
   O163       1.0     0.254144     0.531916     0.613345    Uiso  ? O
   O164       1.0     0.281689     0.555125     0.647624    Uiso  ? O
   O165       1.0     0.246984     0.497546     0.628353    Uiso  ? O
   O166       1.0     0.257277     0.498067     0.676618    Uiso  ? O
   O167       1.0     0.191494     0.507737     0.666660    Uiso  ? O
   O168       1.0     0.229866     0.506075     0.696816    Uiso  ? O
   O169       1.0     0.197163     0.572763     0.643353    Uiso  ? O
   O170       1.0     0.214744     0.571625     0.689175    Uiso  ? O
   O171       1.0     0.262221     0.542294     0.423108    Uiso  ? O
   O172       1.0     0.304375     0.521061     0.424060    Uiso  ? O
   O173       1.0     0.280147     0.511822     0.489497    Uiso  ? O
   O174       1.0     0.314045     0.513422     0.455659    Uiso  ? O
   O175       1.0     0.285639     0.546534     0.506928    Uiso  ? O
   O176       1.0     0.331585     0.561704     0.493979    Uiso  ? O
   O177       1.0     0.246006     0.588380     0.478953    Uiso  ? O
   O178       1.0     0.287436     0.596086     0.453207    Uiso  ? O
   O179       1.0     0.218495     0.375031     0.497369    Uiso  ? O
   O180       1.0     0.259246     0.349062     0.500198    Uiso  ? O
   O181       1.0     0.205741     0.338607     0.553649    Uiso  ? O
   O182       1.0     0.239595     0.306624     0.543018    Uiso  ? O
   O183       1.0     0.245659     0.407336     0.570312    Uiso  ? O
   O184       1.0     0.260976     0.364736     0.588847    Uiso  ? O
   O185       1.0     0.258866     0.409468     0.536368    Uiso  ? O
   O186       1.0     0.283644     0.371845     0.518289    Uiso  ? O
   O187       1.0     0.134869     0.651031     0.392364    Uiso  ? O
   O188       1.0     0.120223     0.695431     0.374937    Uiso  ? O
   O189       1.0     0.165040     0.661245     0.444090    Uiso  ? O
   O190       1.0     0.180446     0.702056     0.424524    Uiso  ? O
   O191       1.0     0.139376     0.677411     0.470477    Uiso  ? O
   O192       1.0     0.124597     0.722024     0.457654    Uiso  ? O
   O193       1.0     0.873252     0.681996     0.429545    Uiso  ? O
   O194       1.0     0.891160     0.728328     0.435330    Uiso  ? O
   O195       1.0     0.104240     0.649989     0.577233    Uiso  ? O
   O196       1.0     0.875391     0.686418     0.598536    Uiso  ? O
   O197       1.0     0.893761     0.629005     0.634205    Uiso  ? O
   O198       1.0     0.888387     0.667788     0.665151    Uiso  ? O
   O199       1.0     0.860775     0.603213     0.636858    Uiso  ? O
   O200       1.0     0.826303     0.635877     0.652823    Uiso  ? O
   O201       1.0     0.825320     0.645298     0.584189    Uiso  ? O
   O202       1.0     0.808230     0.654693     0.629239    Uiso  ? O
   O203       1.0     0.111966     0.501387     0.313073    Uiso  ? O
   O204       1.0     0.119176     0.529893     0.273943    Uiso  ? O
   O205       1.0     0.150830     0.482819     0.302160    Uiso  ? O
   O206       1.0     0.165935     0.491766     0.256139    Uiso  ? O
   O207       1.0     0.190675     0.502206     0.341330    Uiso  ? O
   O208       1.0     0.203162     0.530554     0.303956    Uiso  ? O
   O209       1.0     0.151887     0.568496     0.325354    Uiso  ? O
   O210       1.0     0.132378     0.566914     0.281545    Uiso  ? O
   O211       1.0     0.181270     0.536003     0.593921    Uiso  ? O
   O212       1.0     0.217324     0.523913     0.474568    Uiso  ? O
   O213       1.0     0.179922     0.404802     0.547669    Uiso  ? O
   O214       1.0     0.106332     0.614638     0.444099    Uiso  ? O
   O215       1.0     0.858592     0.587268     0.572403    Uiso  ? O
   O216       1.0     0.148362     0.512847     0.376215    Uiso  ? O
   Zn37       1.0     0.210387     0.530800     0.632678    Uiso  ? Zn
   Zn38       1.0     0.251062     0.545296     0.681759    Uiso  ? Zn
   Zn39       1.0     0.256645     0.544384     0.469197    Uiso  ? Zn
   Zn40       1.0     0.317242     0.560466     0.450398    Uiso  ? Zn
   Zn41       1.0     0.219507     0.383146     0.541465    Uiso  ? Zn
   Zn42       1.0     0.269080     0.343100     0.550105    Uiso  ? Zn
   Zn43       1.0     0.118708     0.658469     0.433016    Uiso  ? Zn
   Zn44       1.0     0.136609     0.717677     0.412542    Uiso  ? Zn
   Zn45       1.0     0.865708     0.625710     0.595738    Uiso  ? Zn
   Zn46       1.0     0.849872     0.675328     0.635596    Uiso  ? Zn
   Zn47       1.0     0.151471     0.519819     0.330531    Uiso  ? Zn
   Zn48       1.0     0.167413     0.535662     0.271871    Uiso  ? Zn
   H217       1.0     0.210998     0.514527     0.456624    Uiso  ? H
   H218       1.0     0.202901     0.524390     0.491592    Uiso  ? H
   H219       1.0     0.776292     0.495198     0.504592    Uiso  ? H
   H220       1.0     0.791314     0.475264     0.529514    Uiso  ? H
   H221       1.0     0.883703     0.465785     0.604907    Uiso  ? H
   H222       1.0     0.106252     0.435282     0.616675    Uiso  ? H
   H223       1.0     0.859910     0.378175     0.500185    Uiso  ? H
   H224       1.0     0.889707     0.371772     0.516458    Uiso  ? H
   H225       1.0     0.130255     0.502840     0.383111    Uiso  ? H
   H226       1.0     0.160909     0.525335     0.389806    Uiso  ? H
   H227       1.0     0.781258     0.450652     0.432303    Uiso  ? H
   H228       1.0     0.815124     0.453433     0.415323    Uiso  ? H
   H229       1.0     0.870301     0.374299     0.409449    Uiso  ? H
   H230       1.0     0.882340     0.411805     0.402351    Uiso  ? H
   H231       1.0     0.880432     0.612445     0.448907    Uiso  ? H
   H232       1.0     0.115673     0.598009     0.432630    Uiso  ? H
   H233       1.0     0.811210     0.591411     0.469119    Uiso  ? H
   H234       1.0     0.812335     0.602543     0.434059    Uiso  ? H
   H235       1.0     0.844977     0.586356     0.556334    Uiso  ? H
   H236       1.0     0.871210     0.570635     0.576226    Uiso  ? H
   H237       1.0     0.166710     0.399936     0.531294    Uiso  ? H
   H238       1.0     0.173985     0.418051     0.562759    Uiso  ? H
   H239       1.0     0.164518     0.522695     0.588500    Uiso  ? H
   H240       1.0     0.184630     0.553417     0.582099    Uiso  ? H
   C385       1.0     0.689024     0.216427     0.475354    Uiso  ? C
   C386       1.0     0.712349     0.197191     0.487127    Uiso  ? C
   C387       1.0     0.739720     0.209045     0.495392    Uiso  ? C
   H241       1.0     0.742922     0.231813     0.493262    Uiso  ? H
   C388       1.0     0.762484     0.190954     0.509334    Uiso  ? C
   H242       1.0     0.784502     0.200565     0.513170    Uiso  ? H
   C389       1.0     0.756961     0.160996     0.511745    Uiso  ? C
   H243       1.0     0.774656     0.147614     0.519662    Uiso  ? H
   C390       1.0     0.728850     0.148232     0.505934    Uiso  ? C
   C391       1.0     0.707312     0.166120     0.492577    Uiso  ? C
   H244       1.0     0.686239     0.156493     0.488336    Uiso  ? H
   C392       1.0     0.722764     0.117390     0.513729    Uiso  ? C
   C393       1.0     0.630577     0.217783     0.399247    Uiso  ? C
   C394       1.0     0.632146     0.201399     0.370002    Uiso  ? C
   C395       1.0     0.647429     0.213577     0.346218    Uiso  ? C
   H245       1.0     0.651130     0.238640     0.345530    Uiso  ? H
   C396       1.0     0.657507     0.196039     0.322288    Uiso  ? C
   H246       1.0     0.669809     0.207507     0.304859    Uiso  ? H
   C397       1.0     0.654308     0.164966     0.323282    Uiso  ? C
   H247       1.0     0.665207     0.153106     0.305176    Uiso  ? H
   C398       1.0     0.638347     0.151779     0.347208    Uiso  ? C
   C399       1.0     0.627759     0.170188     0.370007    Uiso  ? C
   H248       1.0     0.616935     0.161112     0.387733    Uiso  ? H
   C400       1.0     0.637575     0.119095     0.350678    Uiso  ? C
   C401       1.0     0.621812     0.300387     0.449025    Uiso  ? C
   C402       1.0     0.598501     0.323387     0.449586    Uiso  ? C
   C403       1.0     0.606562     0.352454     0.457164    Uiso  ? C
   H249       1.0     0.629483     0.359868     0.457394    Uiso  ? H
   C404       1.0     0.584946     0.373582     0.461632    Uiso  ? C
   H250       1.0     0.590815     0.397380     0.465014    Uiso  ? H
   C405       1.0     0.554481     0.367381     0.458433    Uiso  ? C
   H251       1.0     0.537737     0.382161     0.462489    Uiso  ? H
   C406       1.0     0.545772     0.337648     0.454392    Uiso  ? C
   C407       1.0     0.568131     0.315748     0.449935    Uiso  ? C
   H252       1.0     0.561295     0.293805     0.444199    Uiso  ? H
   C408       1.0     0.514663     0.328167     0.454541    Uiso  ? C
   C409       1.0     0.638580     0.262570     0.504479    Uiso  ? C
   C410       1.0     0.638531     0.268575     0.536796    Uiso  ? C
   C411       1.0     0.662664     0.283059     0.550212    Uiso  ? C
   H253       1.0     0.681644     0.287275     0.536535    Uiso  ? H
   C412       1.0     0.661031     0.293175     0.578981    Uiso  ? C
   H254       1.0     0.678708     0.305221     0.586841    Uiso  ? H
   C413       1.0     0.635496     0.286834     0.595492    Uiso  ? C
   H255       1.0     0.632758     0.299177     0.615573    Uiso  ? H
   C414       1.0     0.611377     0.270860     0.584533    Uiso  ? C
   C415       1.0     0.613818     0.261146     0.553653    Uiso  ? C
   H256       1.0     0.594607     0.251050     0.542956    Uiso  ? H
   C416       1.0     0.585614     0.264756     0.603420    Uiso  ? C
   C417       1.0     0.695086     0.805014     0.518180    Uiso  ? C
   C418       1.0     0.690262     0.772170     0.517692    Uiso  ? C
   C419       1.0     0.714013     0.753368     0.525465    Uiso  ? C
   H257       1.0     0.736186     0.761828     0.528116    Uiso  ? H
   C420       1.0     0.707935     0.724325     0.533983    Uiso  ? C
   H258       1.0     0.726234     0.710439     0.541911    Uiso  ? H
   C421       1.0     0.678990     0.712580     0.532927    Uiso  ? C
   H259       1.0     0.674248     0.689782     0.537617    Uiso  ? H
   C422       1.0     0.655679     0.730968     0.524870    Uiso  ? C
   C423       1.0     0.660283     0.760552     0.518429    Uiso  ? C
   H260       1.0     0.642599     0.776422     0.514652    Uiso  ? H
   C424       1.0     0.624373     0.721897     0.531777    Uiso  ? C
   C425       1.0     0.721288     0.854093     0.476732    Uiso  ? C
   C426       1.0     0.730222     0.850572     0.444736    Uiso  ? C
   C427       1.0     0.760735     0.849657     0.437345    Uiso  ? C
   H261       1.0     0.779152     0.852793     0.453793    Uiso  ? H
   C428       1.0     0.768355     0.847536     0.407545    Uiso  ? C
   H262       1.0     0.792012     0.846163     0.400410    Uiso  ? H
   C429       1.0     0.746663     0.845133     0.385756    Uiso  ? C
   H263       1.0     0.755035     0.841474     0.363503    Uiso  ? H
   C430       1.0     0.715919     0.846988     0.392697    Uiso  ? C
   C431       1.0     0.708086     0.848233     0.422898    Uiso  ? C
   H264       1.0     0.684346     0.848297     0.429730    Uiso  ? H
   C432       1.0     0.691414     0.849560     0.370868    Uiso  ? C
   C433       1.0     0.684098     0.870856     0.584817    Uiso  ? C
   C434       1.0     0.675314     0.877256     0.615790    Uiso  ? C
   C435       1.0     0.696834     0.889865     0.635809    Uiso  ? C
   H265       1.0     0.720101     0.103412     0.628795    Uiso  ? H
   C436       1.0     0.686974     0.895579     0.664015    Uiso  ? C
   H266       1.0     0.702801     0.112676     0.680381    Uiso  ? H
   C437       1.0     0.658870     0.887689     0.673556    Uiso  ? C
   H267       1.0     0.652757     0.890021     0.696461    Uiso  ? H
   C438       1.0     0.637742     0.877258     0.652750    Uiso  ? C
   C439       1.0     0.645046     0.873876     0.623459    Uiso  ? C
   H268       1.0     0.629013     0.867324     0.606961    Uiso  ? H
   C440       1.0     0.606677     0.875241     0.663897    Uiso  ? C
   C441       1.0     0.607769     0.807768     0.343349    Uiso  ? C
   C442       1.0     0.593346     0.778749     0.340536    Uiso  ? C
   C443       1.0     0.609873     0.754115     0.331616    Uiso  ? C
   H269       1.0     0.632057     0.755638     0.325157    Uiso  ? H
   C444       1.0     0.597667     0.726269     0.333946    Uiso  ? C
   H270       1.0     0.609837     0.707475     0.328148    Uiso  ? H
   C445       1.0     0.567024     0.723557     0.340005    Uiso  ? C
   H271       1.0     0.557168     0.701657     0.339644    Uiso  ? H
   C446       1.0     0.549151     0.748601     0.346451    Uiso  ? C
   C447       1.0     0.562837     0.776528     0.345348    Uiso  ? C
   H272       1.0     0.549331     0.796327     0.349487    Uiso  ? H
   C448       1.0     0.517375     0.745542     0.355768    Uiso  ? C
   C449       1.0     0.598108     0.875112     0.308617    Uiso  ? C
   C450       1.0     0.576366     0.890196     0.289808    Uiso  ? C
   C451       1.0     0.586333     0.104875     0.260484    Uiso  ? C
   H273       1.0     0.608066     0.102945     0.251251    Uiso  ? H
   C452       1.0     0.565180     0.119503     0.242058    Uiso  ? C
   H274       1.0     0.571808     0.122183     0.218699    Uiso  ? H
   C453       1.0     0.537345     0.126990     0.253896    Uiso  ? C
   H275       1.0     0.520712     0.140261     0.240711    Uiso  ? H
   C454       1.0     0.529745     0.119743     0.282821    Uiso  ? C
   C455       1.0     0.549673     0.104693     0.300882    Uiso  ? C
   H276       1.0     0.541811     0.890085     0.321034    Uiso  ? H
   C456       1.0     0.500148     0.127487     0.294619    Uiso  ? C
   C457       1.0     0.533799     0.809296     0.675176    Uiso  ? C
   C458       1.0     0.530812     0.778141     0.666456    Uiso  ? C
   C459       1.0     0.518679     0.757836     0.686146    Uiso  ? C
   H277       1.0     0.509462     0.764795     0.707272    Uiso  ? H
   C460       1.0     0.523264     0.727928     0.679802    Uiso  ? C
   H278       1.0     0.517503     0.710812     0.695891    Uiso  ? H
   C461       1.0     0.533715     0.719193     0.652080    Uiso  ? C
   H279       1.0     0.538771     0.695489     0.647797    Uiso  ? H
   C462       1.0     0.541458     0.739817     0.629514    Uiso  ? C
   C463       1.0     0.540353     0.769514     0.637575    Uiso  ? C
   H280       1.0     0.548312     0.786109     0.622828    Uiso  ? H
   C464       1.0     0.553531     0.731075     0.600165    Uiso  ? C
   C465       1.0     0.569443     0.118654     0.712164    Uiso  ? C
   C466       1.0     0.575893     0.150114     0.722094    Uiso  ? C
   C467       1.0     0.578289     0.157056     0.752858    Uiso  ? C
   H281       1.0     0.576769     0.139862     0.769338    Uiso  ? H
   C468       1.0     0.581287     0.187409     0.761490    Uiso  ? C
   H282       1.0     0.582774     0.194057     0.784067    Uiso  ? H
   C469       1.0     0.577025     0.209519     0.740202    Uiso  ? C
   H283       1.0     0.573994     0.232662     0.747797    Uiso  ? H
   C470       1.0     0.572387     0.202342     0.710028    Uiso  ? C
   C471       1.0     0.574189     0.172088     0.700517    Uiso  ? C
   H284       1.0     0.570071     0.167500     0.678151    Uiso  ? H
   C472       1.0     0.564650     0.224970     0.687553    Uiso  ? C
   C473       1.0     0.511852     0.285897     0.607134    Uiso  ? C
   C474       1.0     0.493571     0.303739     0.587722    Uiso  ? C
   C475       1.0     0.475214     0.326152     0.600311    Uiso  ? C
   H285       1.0     0.475483     0.329709     0.623834    Uiso  ? H
   C476       1.0     0.455528     0.343151     0.582722    Uiso  ? C
   H286       1.0     0.440067     0.359162     0.592581    Uiso  ? H
   C477       1.0     0.454874     0.337839     0.551286    Uiso  ? C
   H287       1.0     0.442484     0.352763     0.536812    Uiso  ? H
   C478       1.0     0.472314     0.315293     0.539137    Uiso  ? C
   C479       1.0     0.492020     0.299206     0.556862    Uiso  ? C
   H288       1.0     0.503784     0.279403     0.548601    Uiso  ? H
   C480       1.0     0.470428     0.309584     0.506433    Uiso  ? C
   O217       1.0     0.664022     0.204966     0.467220    Uiso  ? O
   O218       1.0     0.691957     0.243650     0.475179    Uiso  ? O
   O219       1.0     0.611872     0.210407     0.417643    Uiso  ? O
   O220       1.0     0.651383     0.235964     0.405963    Uiso  ? O
   O221       1.0     0.613334     0.273323     0.453627    Uiso  ? O
   O222       1.0     0.649357     0.305792     0.444421    Uiso  ? O
   O223       1.0     0.615136     0.253023     0.492694    Uiso  ? O
   O224       1.0     0.663165     0.264758     0.489765    Uiso  ? O
   O225       1.0     0.676776     0.822676     0.505832    Uiso  ? O
   O226       1.0     0.716995     0.814835     0.532692    Uiso  ? O
   O227       1.0     0.694141     0.852420     0.484012    Uiso  ? O
   O228       1.0     0.741169     0.859906     0.496548    Uiso  ? O
   O229       1.0     0.695965     0.109581     0.518242    Uiso  ? O
   O230       1.0     0.742177     0.892612     0.514774    Uiso  ? O
   O231       1.0     0.668149     0.854905     0.569021    Uiso  ? O
   O232       1.0     0.709087     0.879386     0.574892    Uiso  ? O
   O233       1.0     0.592963     0.830489     0.345397    Uiso  ? O
   O234       1.0     0.635285     0.810650     0.342404    Uiso  ? O
   O235       1.0     0.589526     0.863354     0.333009    Uiso  ? O
   O236       1.0     0.626177     0.879419     0.305183    Uiso  ? O
   O237       1.0     0.621657     0.108401     0.370836    Uiso  ? O
   O238       1.0     0.648809     0.897139     0.330895    Uiso  ? O
   O239       1.0     0.664557     0.852269     0.379989    Uiso  ? O
   O240       1.0     0.697109     0.852276     0.342766    Uiso  ? O
   O241       1.0     0.546682     0.827134     0.657840    Uiso  ? O
   O242       1.0     0.529488     0.818403     0.701840    Uiso  ? O
   O243       1.0     0.586428     0.893589     0.656025    Uiso  ? O
   O244       1.0     0.600693     0.853476     0.681198    Uiso  ? O
   O245       1.0     0.561439     0.113307     0.686437    Uiso  ? O
   O246       1.0     0.570068     0.891510     0.730705    Uiso  ? O
   O247       1.0     0.509549     0.882940     0.680867    Uiso  ? O
   O248       1.0     0.521085     0.854177     0.717627    Uiso  ? O
   O249       1.0     0.559973     0.217495     0.661512    Uiso  ? O
   O250       1.0     0.559695     0.252184     0.694460    Uiso  ? O
   O251       1.0     0.561284     0.255384     0.593136    Uiso  ? O
   O252       1.0     0.587325     0.271231     0.630140    Uiso  ? O
   O253       1.0     0.525110     0.263857     0.596273    Uiso  ? O
   O254       1.0     0.513893     0.290932     0.635425    Uiso  ? O
   O255       1.0     0.499360     0.229203     0.645323    Uiso  ? O
   O256       1.0     0.506953     0.271650     0.669613    Uiso  ? O
   O257       1.0     0.519926     0.714817     0.535652    Uiso  ? O
   O258       1.0     0.535898     0.683438     0.571326    Uiso  ? O
   O259       1.0     0.541003     0.713690     0.504725    Uiso  ? O
   O260       1.0     0.567628     0.672605     0.513549    Uiso  ? O
   O261       1.0     0.602992     0.735612     0.520233    Uiso  ? O
   O262       1.0     0.619161     0.703508     0.551989    Uiso  ? O
   O263       1.0     0.556502     0.750554     0.579785    Uiso  ? O
   O264       1.0     0.557747     0.704151     0.594602    Uiso  ? O
   O265       1.0     0.590304     0.194350     0.444913    Uiso  ? O
   O266       1.0     0.627601     0.877748     0.514450    Uiso  ? O
   O267       1.0     0.596801     0.850148     0.413942    Uiso  ? O
   O268       1.0     0.537893     0.886912     0.613642    Uiso  ? O
   O269       1.0     0.542419     0.186834     0.602464    Uiso  ? O
   O270       1.0     0.554663     0.782832     0.518154    Uiso  ? O
   Zn49       1.0     0.625959     0.227273     0.457348    Uiso  ? Zn
   Zn50       1.0     0.672478     0.264794     0.439881    Uiso  ? Zn
   Zn51       1.0     0.670248     0.864595     0.524395    Uiso  ? Zn
   Zn52       1.0     0.731191     0.856108     0.542645    Uiso  ? Zn
   Zn53       1.0     0.617592     0.859216     0.371886    Uiso  ? Zn
   Zn54       1.0     0.656311     0.849877     0.319818    Uiso  ? Zn
   Zn55       1.0     0.546054     0.873721     0.656220    Uiso  ? Zn
   Zn56       1.0     0.567029     0.846493     0.714146    Uiso  ? Zn
   Zn57       1.0     0.538507     0.228451     0.622979    Uiso  ? Zn
   Zn58       1.0     0.552677     0.281335     0.659522    Uiso  ? Zn
   Zn59       1.0     0.560359     0.742058     0.536705    Uiso  ? Zn
   Zn60       1.0     0.580184     0.680833     0.558164    Uiso  ? Zn
   C481       1.0     0.347492     0.807612     0.505104    Uiso  ? C
   C482       1.0     0.324846     0.823821     0.488567    Uiso  ? C
   C483       1.0     0.301444     0.809585     0.471957    Uiso  ? C
   H289       1.0     0.302023     0.786216     0.472008    Uiso  ? H
   C484       1.0     0.279916     0.825920     0.457696    Uiso  ? C
   H290       1.0     0.258753     0.815924     0.449085    Uiso  ? H
   C485       1.0     0.281683     0.857013     0.457840    Uiso  ? C
   H291       1.0     0.266166     0.869299     0.443438    Uiso  ? H
   C486       1.0     0.306013     0.871453     0.472929    Uiso  ? C
   C487       1.0     0.326337     0.854155     0.489350    Uiso  ? C
   H292       1.0     0.343423     0.863847     0.503338    Uiso  ? H
   C488       1.0     0.312068     0.108484     0.471009    Uiso  ? C
   C489       1.0     0.372676     0.789735     0.595621    Uiso  ? C
   C490       1.0     0.367224     0.803585     0.625178    Uiso  ? C
   C491       1.0     0.362567     0.787487     0.651987    Uiso  ? C
   H293       1.0     0.363956     0.762299     0.653351    Uiso  ? H
   C492       1.0     0.358498     0.802487     0.678560    Uiso  ? C
   H294       1.0     0.358395     0.789142     0.698904    Uiso  ? H
   C493       1.0     0.356714     0.833449     0.678533    Uiso  ? C
   H295       1.0     0.352609     0.842976     0.700458    Uiso  ? H
   C494       1.0     0.359955     0.849808     0.651767    Uiso  ? C
   C495       1.0     0.364684     0.834764     0.626208    Uiso  ? C
   H296       1.0     0.367056     0.847780     0.605803    Uiso  ? H
   C496       1.0     0.359904     0.882241     0.651465    Uiso  ? C
   C497       1.0     0.408981     0.731787     0.558333    Uiso  ? C
   C498       1.0     0.431347     0.709700     0.567106    Uiso  ? C
   C499       1.0     0.422219     0.682923     0.579654    Uiso  ? C
   H297       1.0     0.399384     0.677915     0.583022    Uiso  ? H
   C500       1.0     0.443542     0.661340     0.588776    Uiso  ? C
   H298       1.0     0.434798     0.640592     0.596597    Uiso  ? H
   C501       1.0     0.474167     0.665676     0.582039    Uiso  ? C
   H299       1.0     0.490973     0.650273     0.588383    Uiso  ? H
   C502       1.0     0.482727     0.691100     0.565504    Uiso  ? C
   C503       1.0     0.461346     0.713444     0.559012    Uiso  ? C
   H300       1.0     0.468904     0.731636     0.545525    Uiso  ? H
   C504       1.0     0.514384     0.696150     0.556695    Uiso  ? C
   C505       1.0     0.366765     0.729470     0.500591    Uiso  ? C
   C506       1.0     0.373683     0.710568     0.474491    Uiso  ? C
   C507       1.0     0.360091     0.682788     0.470856    Uiso  ? C
   H301       1.0     0.342395     0.675661     0.485964    Uiso  ? H
   C508       1.0     0.365356     0.666246     0.443482    Uiso  ? C
   H302       1.0     0.353978     0.645009     0.440451    Uiso  ? H
   C509       1.0     0.387145     0.677023     0.424307    Uiso  ? C
   H303       1.0     0.389324     0.665294     0.404304    Uiso  ? H
   C510       1.0     0.403545     0.703501     0.430355    Uiso  ? C
   C511       1.0     0.395060     0.721161     0.454661    Uiso  ? C
   H304       1.0     0.406966     0.742686     0.457057    Uiso  ? H
   C512       1.0     0.426432     0.714320     0.408515    Uiso  ? C
   C513       1.0     0.325516     0.219669     0.464925    Uiso  ? C
   C514       1.0     0.334829     0.250700     0.467266    Uiso  ? C
   C515       1.0     0.316712     0.274304     0.477120    Uiso  ? C
   H305       1.0     0.293072     0.269733     0.477302    Uiso  ? H
   C516       1.0     0.327606     0.302597     0.482880    Uiso  ? C
   H306       1.0     0.313237     0.320805     0.489934    Uiso  ? H
   C517       1.0     0.357508     0.307651     0.480255    Uiso  ? C
   H307       1.0     0.364360     0.329571     0.489497    Uiso  ? H
   C518       1.0     0.376883     0.285842     0.472636    Uiso  ? C
   C519       1.0     0.365232     0.257620     0.466061    Uiso  ? C
   H308       1.0     0.381915     0.241913     0.461770    Uiso  ? H
   C520       1.0     0.409334     0.292842     0.467335    Uiso  ? C
   C521       1.0     0.279289     0.162415     0.526747    Uiso  ? C
   C522       1.0     0.271700     0.155997     0.558699    Uiso  ? C
   C523       1.0     0.241441     0.149435     0.567177    Uiso  ? C
   H309       1.0     0.223773     0.149809     0.548996    Uiso  ? H
   C524       1.0     0.235266     0.147407     0.597631    Uiso  ? C
   H310       1.0     0.212722     0.144796     0.603056    Uiso  ? H
   C525       1.0     0.259254     0.146400     0.619112    Uiso  ? C
   H311       1.0     0.253707     0.143744     0.643553    Uiso  ? H
   C526       1.0     0.288628     0.150223     0.609491    Uiso  ? C
   C527       1.0     0.294162     0.154874     0.580095    Uiso  ? C
   H312       1.0     0.317553     0.153099     0.571719    Uiso  ? H
   C528       1.0     0.313896     0.147092     0.630608    Uiso  ? C
   C529       1.0     0.318456     0.153612     0.419896    Uiso  ? C
   C530       1.0     0.328802     0.139395     0.391749    Uiso  ? C
   C531       1.0     0.310204     0.121165     0.375050    Uiso  ? C
   H313       1.0     0.289418     0.116510     0.384360    Uiso  ? H
   C532       1.0     0.317196     0.110812     0.347842    Uiso  ? C
   H314       1.0     0.300547     0.890988     0.336611    Uiso  ? H
   C533       1.0     0.344206     0.118536     0.334563    Uiso  ? C
   H315       1.0     0.347215     0.109930     0.312290    Uiso  ? H
   C534       1.0     0.366286     0.133538     0.351850    Uiso  ? C
   C535       1.0     0.358364     0.145245     0.379852    Uiso  ? C
   H316       1.0     0.374946     0.159633     0.390973    Uiso  ? H
   C536       1.0     0.396802     0.137210     0.339357    Uiso  ? C
   C537       1.0     0.395856     0.189691     0.670905    Uiso  ? C
   C538       1.0     0.413148     0.217615     0.676629    Uiso  ? C
   C539       1.0     0.399999     0.244161     0.688067    Uiso  ? C
   H317       1.0     0.377216     0.243974     0.693976    Uiso  ? H
   C540       1.0     0.416190     0.270257     0.691502    Uiso  ? C
   H318       1.0     0.406749     0.291942     0.697025    Uiso  ? H
   C541       1.0     0.446318     0.270470     0.686940    Uiso  ? C
   H319       1.0     0.459959     0.288431     0.693635    Uiso  ? H
   C542       1.0     0.459711     0.246024     0.673736    Uiso  ? C
   C543       1.0     0.443382     0.219689     0.669252    Uiso  ? C
   H320       1.0     0.453285     0.201225     0.659759    Uiso  ? H
   C544       1.0     0.490127     0.248669     0.664217    Uiso  ? C
   C545       1.0     0.401717     0.118202     0.694777    Uiso  ? C
   C546       1.0     0.422847     0.895113     0.711916    Uiso  ? C
   C547       1.0     0.416022     0.882876     0.739867    Uiso  ? C
   H321       1.0     0.392792     0.885095     0.748875    Uiso  ? H
   C548       1.0     0.435794     0.864060     0.752337    Uiso  ? C
   H322       1.0     0.430608     0.857193     0.774199    Uiso  ? H
   C549       1.0     0.464595     0.860963     0.742516    Uiso  ? C
   H323       1.0     0.482854     0.851910     0.756597    Uiso  ? H
   C550       1.0     0.472159     0.874240     0.714845    Uiso  ? C
   C551       1.0     0.450898     0.890343     0.699069    Uiso  ? C
   H324       1.0     0.457732     0.105549     0.678537    Uiso  ? H
   C552       1.0     0.501541     0.869940     0.703440    Uiso  ? C
   C553       1.0     0.453176     0.189814     0.328026    Uiso  ? C
   C554       1.0     0.458229     0.221038     0.334722    Uiso  ? C
   C555       1.0     0.460148     0.241875     0.311324    Uiso  ? C
   H325       1.0     0.459329     0.231935     0.289236    Uiso  ? H
   C556       1.0     0.466860     0.271493     0.317149    Uiso  ? C
   H326       1.0     0.467910     0.285926     0.297248    Uiso  ? H
   C557       1.0     0.470921     0.280139     0.346269    Uiso  ? C
   H327       1.0     0.476614     0.302776     0.350929    Uiso  ? H
   C558       1.0     0.467313     0.260150     0.370792    Uiso  ? C
   C559       1.0     0.461058     0.229785     0.364233    Uiso  ? C
   H328       1.0     0.457479     0.215235     0.383029    Uiso  ? H
   C560       1.0     0.469665     0.271508     0.402018    Uiso  ? C
   C561       1.0     0.443984     0.874356     0.295619    Uiso  ? C
   C562       1.0     0.441068     0.843101     0.287250    Uiso  ? C
   C563       1.0     0.442038     0.834705     0.257073    Uiso  ? C
   H329       1.0     0.442947     0.851086     0.239810    Uiso  ? H
   C564       1.0     0.440751     0.805251     0.247463    Uiso  ? C
   H330       1.0     0.442078     0.800902     0.224529    Uiso  ? H
   C565       1.0     0.437434     0.783054     0.269139    Uiso  ? C
   H331       1.0     0.433233     0.761167     0.262410    Uiso  ? H
   C566       1.0     0.438354     0.789446     0.299369    Uiso  ? C
   C567       1.0     0.439149     0.820082     0.307983    Uiso  ? C
   H332       1.0     0.439129     0.824937     0.330427    Uiso  ? H
   C568       1.0     0.442220     0.765760     0.322228    Uiso  ? C
   C569       1.0     0.497185     0.701067     0.401690    Uiso  ? C
   C570       1.0     0.515114     0.682415     0.421256    Uiso  ? C
   C571       1.0     0.529987     0.657368     0.409112    Uiso  ? C
   H333       1.0     0.526426     0.652163     0.386712    Uiso  ? H
   C572       1.0     0.548925     0.640596     0.426778    Uiso  ? C
   H334       1.0     0.559680     0.619648     0.419782    Uiso  ? H
   C573       1.0     0.555286     0.650346     0.455497    Uiso  ? C
   H335       1.0     0.571322     0.636460     0.466276    Uiso  ? H
   C574       1.0     0.539197     0.673384     0.468318    Uiso  ? C
   C575       1.0     0.518617     0.688572     0.451767    Uiso  ? C
   H336       1.0     0.508888     0.707464     0.461377    Uiso  ? H
   C576       1.0     0.549562     0.687720     0.496735    Uiso  ? C
   O271       1.0     0.374844     0.812827     0.501244    Uiso  ? O
   O272       1.0     0.338534     0.787565     0.522740    Uiso  ? O
   O273       1.0     0.377455     0.807173     0.573448    Uiso  ? O
   O274       1.0     0.370566     0.761506     0.591520    Uiso  ? O
   O275       1.0     0.413048     0.746192     0.534018    Uiso  ? O
   O276       1.0     0.385514     0.736467     0.574515    Uiso  ? O
   O277       1.0     0.383804     0.751317     0.506476    Uiso  ? O
   O278       1.0     0.346462     0.721968     0.518393    Uiso  ? O
   O279       1.0     0.342957     0.199140     0.456598    Uiso  ? O
   O280       1.0     0.301606     0.212158     0.475968    Uiso  ? O
   O281       1.0     0.305953     0.164524     0.518690    Uiso  ? O
   O282       1.0     0.258764     0.163531     0.506924    Uiso  ? O
   O283       1.0     0.338836     0.119036     0.473958    Uiso  ? O
   O284       1.0     0.289333     0.125442     0.466636    Uiso  ? O
   O285       1.0     0.337811     0.166698     0.436959    Uiso  ? O
   O286       1.0     0.293116     0.146066     0.430892    Uiso  ? O
   O287       1.0     0.410279     0.166370     0.665653    Uiso  ? O
   O288       1.0     0.366627     0.189834     0.668757    Uiso  ? O
   O289       1.0     0.411260     0.131590     0.671357    Uiso  ? O
   O290       1.0     0.373965     0.115617     0.699472    Uiso  ? O
   O291       1.0     0.375743     0.894734     0.631438    Uiso  ? O
   O292       1.0     0.348743     0.102861     0.672460    Uiso  ? O
   O293       1.0     0.339544     0.150060     0.620414    Uiso  ? O
   O294       1.0     0.309631     0.145623     0.657858    Uiso  ? O
   O295       1.0     0.445870     0.171104     0.347800    Uiso  ? O
   O296       1.0     0.454781     0.182651     0.301282    Uiso  ? O
   O297       1.0     0.417453     0.148753     0.355091    Uiso  ? O
   O298       1.0     0.400691     0.132585     0.312072    Uiso  ? O
   O299       1.0     0.440536     0.880986     0.322758    Uiso  ? O
   O300       1.0     0.449356     0.894024     0.275505    Uiso  ? O
   O301       1.0     0.496009     0.129503     0.322070    Uiso  ? O
   O302       1.0     0.477686     0.124889     0.276921    Uiso  ? O
   O303       1.0     0.443234     0.774240     0.348663    Uiso  ? O
   O304       1.0     0.449045     0.739091     0.314628    Uiso  ? O
   O305       1.0     0.448819     0.729752     0.417910    Uiso  ? O
   O306       1.0     0.422525     0.708618     0.381148    Uiso  ? O
   O307       1.0     0.484072     0.724423     0.411553    Uiso  ? O
   O308       1.0     0.492867     0.693984     0.374653    Uiso  ? O
   O309       1.0     0.507982     0.764963     0.374926    Uiso  ? O
   O310       1.0     0.501253     0.722907     0.348053    Uiso  ? O
   O311       1.0     0.508564     0.302419     0.464561    Uiso  ? O
   O312       1.0     0.494427     0.344810     0.443777    Uiso  ? O
   O313       1.0     0.489539     0.291411     0.494525    Uiso  ? O
   O314       1.0     0.451082     0.323365     0.490194    Uiso  ? O
   O315       1.0     0.426761     0.272096     0.460661    Uiso  ? O
   O316       1.0     0.420462     0.317878     0.472889    Uiso  ? O
   O317       1.0     0.484036     0.255827     0.420606    Uiso  ? O
   O318       1.0     0.456751     0.295467     0.408970    Uiso  ? O
   O319       1.0     0.438978     0.807965     0.531129    Uiso  ? O
   O320       1.0     0.375889     0.169429     0.512433    Uiso  ? O
   O321       1.0     0.407055     0.169361     0.597187    Uiso  ? O
   O322       1.0     0.478321     0.111036     0.384037    Uiso  ? O
   O323       1.0     0.452083     0.797286     0.414737    Uiso  ? O
   O324       1.0     0.480324     0.227133     0.454064    Uiso  ? O
   Zn61       1.0     0.396644     0.790673     0.532585    Uiso  ? Zn
   Zn62       1.0     0.344113     0.752207     0.553050    Uiso  ? Zn
   Zn63       1.0     0.338481     0.162671     0.486047    Uiso  ? Zn
   Zn64       1.0     0.277942     0.173191     0.467717    Uiso  ? Zn
   Zn65       1.0     0.386382     0.145836     0.631777    Uiso  ? Zn
   Zn66       1.0     0.346336     0.149349     0.685418    Uiso  ? Zn
   Zn67       1.0     0.457794     0.125203     0.344845    Uiso  ? Zn
   Zn68       1.0     0.435601     0.144612     0.282233    Uiso  ? Zn
   Zn69       1.0     0.465453     0.761016     0.388383    Uiso  ? Zn
   Zn70       1.0     0.455007     0.708245     0.349724    Uiso  ? Zn
   Zn71       1.0     0.470790     0.273461     0.458755    Uiso  ? Zn
   Zn72       1.0     0.453079     0.328384     0.441754    Uiso  ? Zn
   H337       1.0     0.375774     0.162761     0.532301    Uiso  ? H
   H338       1.0     0.392544     0.181532     0.505852    Uiso  ? H
   H339       1.0     0.611322     0.879759     0.529836    Uiso  ? H
   H340       1.0     0.624672     0.885934     0.495426    Uiso  ? H
   H341       1.0     0.551818     0.800634     0.528895    Uiso  ? H
   H342       1.0     0.560077     0.783207     0.497658    Uiso  ? H
   H343       1.0     0.543719     0.877915     0.595124    Uiso  ? H
   H344       1.0     0.522633     0.104484     0.613662    Uiso  ? H
   H345       1.0     0.463243     0.214001     0.452939    Uiso  ? H
   H346       1.0     0.500549     0.219599     0.455242    Uiso  ? H
   H347       1.0     0.569740     0.200315     0.440990    Uiso  ? H
   H348       1.0     0.591858     0.176548     0.456888    Uiso  ? H
   H349       1.0     0.527116     0.171610     0.606837    Uiso  ? H
   H350       1.0     0.559112     0.183786     0.588751    Uiso  ? H
   H351       1.0     0.494980     0.893311     0.380031    Uiso  ? H
   H352       1.0     0.472831     0.116233     0.404142    Uiso  ? H
   H353       1.0     0.590773     0.829623     0.416867    Uiso  ? H
   H354       1.0     0.590555     0.866512     0.426659    Uiso  ? H
   H355       1.0     0.434651     0.793835     0.426066    Uiso  ? H
   H356       1.0     0.468236     0.809997     0.421087    Uiso  ? H
   H357       1.0     0.408799     0.161875     0.576545    Uiso  ? H
   H358       1.0     0.416483     0.188559     0.600185    Uiso  ? H
   H359       1.0     0.449293     0.808584     0.511865    Uiso  ? H
   H360       1.0     0.445615     0.820677     0.547210    Uiso  ? H
   C577       1.0     0.278527     0.457231     0.111151    Uiso  ? C
   C578       1.0     0.269217     0.454873     0.142595    Uiso  ? C
   C579       1.0     0.240443     0.452494     0.151472    Uiso  ? C
   H361       1.0     0.222973     0.454083     0.133755    Uiso  ? H
   C580       1.0     0.232679     0.448549     0.181586    Uiso  ? C
   H362       1.0     0.209095     0.449250     0.188526    Uiso  ? H
   C581       1.0     0.254703     0.443184     0.202574    Uiso  ? C
   H363       1.0     0.247395     0.440461     0.226036    Uiso  ? H
   C582       1.0     0.284130     0.447803     0.194840    Uiso  ? C
   C583       1.0     0.290722     0.452763     0.164979    Uiso  ? C
   H364       1.0     0.312713     0.455749     0.158185    Uiso  ? H
   C584       1.0     0.308023     0.447464     0.216925    Uiso  ? C
   C585       1.0     0.289606     0.513966     0.866404    Uiso  ? C
   C586       1.0     0.280944     0.545853     0.870540    Uiso  ? C
   C587       1.0     0.253155     0.556084     0.859856    Uiso  ? C
   H365       1.0     0.238282     0.539928     0.847548    Uiso  ? H
   C588       1.0     0.246303     0.585105     0.864944    Uiso  ? C
   H366       1.0     0.226772     0.594825     0.855993    Uiso  ? H
   C589       1.0     0.264245     0.604009     0.880947    Uiso  ? C
   H367       1.0     0.258817     0.625952     0.884326    Uiso  ? H
   C590       1.0     0.289158     0.591992     0.894990    Uiso  ? C
   C591       1.0     0.296944     0.563073     0.890239    Uiso  ? C
   H368       1.0     0.312525     0.552889     0.102723    Uiso  ? H
   C592       1.0     0.308957     0.610748     0.113297    Uiso  ? C
   C593       1.0     0.319747     0.475595     0.809657    Uiso  ? C
   C594       1.0     0.327163     0.479702     0.777102    Uiso  ? C
   C595       1.0     0.307169     0.486370     0.753879    Uiso  ? C
   H369       1.0     0.285923     0.492518     0.761363    Uiso  ? H
   C596       1.0     0.316596     0.491557     0.725839    Uiso  ? C
   H370       1.0     0.299718     0.497806     0.709746    Uiso  ? H
   C597       1.0     0.345737     0.485071     0.717259    Uiso  ? C
   H371       1.0     0.351166     0.489551     0.693457    Uiso  ? H
   C598       1.0     0.366008     0.476678     0.738254    Uiso  ? C
   C599       1.0     0.357184     0.473303     0.768288    Uiso  ? C
   H372       1.0     0.371922     0.461418     0.783403    Uiso  ? H
   C600       1.0     0.397157     0.469748     0.730297    Uiso  ? C
   C601       1.0     0.325734     0.408811     0.878712    Uiso  ? C
   C602       1.0     0.336040     0.379633     0.885156    Uiso  ? C
   C603       1.0     0.317648     0.356382     0.895300    Uiso  ? C
   H373       1.0     0.294466     0.362737     0.101492    Uiso  ? H
   C604       1.0     0.328232     0.327940     0.900000    Uiso  ? C
   H374       1.0     0.315077     0.310995     0.106992    Uiso  ? H
   C605       1.0     0.357867     0.321925     0.890561    Uiso  ? C
   H375       1.0     0.364784     0.299051     0.889769    Uiso  ? H
   C606       1.0     0.378181     0.345678     0.883469    Uiso  ? C
   C607       1.0     0.366357     0.373871     0.879580    Uiso  ? C
   H376       1.0     0.381907     0.391196     0.871237    Uiso  ? H
   C608       1.0     0.405977     0.339703     0.872182    Uiso  ? C
   C609       1.0     0.394807     0.482060     0.274587    Uiso  ? C
   C610       1.0     0.414641     0.498524     0.295748    Uiso  ? C
   C611       1.0     0.403887     0.515090     0.320335    Uiso  ? C
   H377       1.0     0.378918     0.518494     0.323222    Uiso  ? H
   C612       1.0     0.421910     0.529735     0.339468    Uiso  ? C
   H378       1.0     0.412729     0.540909     0.357532    Uiso  ? H
   C613       1.0     0.452242     0.531317     0.333451    Uiso  ? C
   H379       1.0     0.463991     0.546159     0.348302    Uiso  ? H
   C614       1.0     0.464759     0.516442     0.310242    Uiso  ? C
   C615       1.0     0.444556     0.498334     0.291292    Uiso  ? C
   H380       1.0     0.454055     0.489214     0.270646    Uiso  ? H
   C616       1.0     0.496413     0.521292     0.300013    Uiso  ? C
   C617       1.0     0.346542     0.511509     0.238040    Uiso  ? C
   C618       1.0     0.336848     0.542669     0.238424    Uiso  ? C
   C619       1.0     0.330566     0.556113     0.265600    Uiso  ? C
   H381       1.0     0.333957     0.545050     0.286395    Uiso  ? H
   C620       1.0     0.320872     0.585533     0.266253    Uiso  ? C
   H382       1.0     0.317398     0.597035     0.287627    Uiso  ? H
   C621       1.0     0.320925     0.602241     0.240498    Uiso  ? C
   H383       1.0     0.320504     0.625368     0.243132    Uiso  ? H
   C622       1.0     0.330289     0.589893     0.213910    Uiso  ? C
   C623       1.0     0.335213     0.560038     0.212737    Uiso  ? C
   H384       1.0     0.345524     0.549700     0.193465    Uiso  ? H
   C624       1.0     0.335421     0.607684     0.187321    Uiso  ? C
   C625       1.0     0.392388     0.410294     0.241304    Uiso  ? C
   C626       1.0     0.407250     0.380949     0.243756    Uiso  ? C
   C627       1.0     0.390152     0.355113     0.249143    Uiso  ? C
   H385       1.0     0.366062     0.358454     0.251925    Uiso  ? H
   C628       1.0     0.403833     0.327468     0.250894    Uiso  ? C
   H386       1.0     0.390158     0.310667     0.255005    Uiso  ? H
   C629       1.0     0.435310     0.325553     0.248078    Uiso  ? C
   H387       1.0     0.444334     0.303189     0.245744    Uiso  ? H
   C630       1.0     0.452697     0.350757     0.244832    Uiso  ? C
   C631       1.0     0.438419     0.379196     0.242533    Uiso  ? C
   H388       1.0     0.452129     0.397979     0.240811    Uiso  ? H
   C632       1.0     0.485294     0.348931     0.240194    Uiso  ? C
   C633       1.0     0.370393     0.693072     0.157959    Uiso  ? C
   C634       1.0     0.394086     0.715571     0.163089    Uiso  ? C
   C635       1.0     0.387445     0.743096     0.175135    Uiso  ? C
   H389       1.0     0.365019     0.749462     0.179836    Uiso  ? H
   C636       1.0     0.410608     0.763579     0.181863    Uiso  ? C
   H390       1.0     0.405699     0.784543     0.192652    Uiso  ? H
   C637       1.0     0.440127     0.756456     0.176809    Uiso  ? C
   H391       1.0     0.457326     0.772754     0.182248    Uiso  ? H
   C638       1.0     0.446979     0.728543     0.164726    Uiso  ? C
   C639       1.0     0.424467     0.707956     0.158532    Uiso  ? C
   H392       1.0     0.431085     0.687064     0.151245    Uiso  ? H
   C640       1.0     0.478003     0.720779     0.158620    Uiso  ? C
   C641       1.0     0.351619     0.651879     0.886467    Uiso  ? C
   C642       1.0     0.349176     0.651475     0.854300    Uiso  ? C
   C643       1.0     0.322554     0.649381     0.839505    Uiso  ? C
   H393       1.0     0.301391     0.647248     0.852195    Uiso  ? H
   C644       1.0     0.322126     0.648333     0.808412    Uiso  ? C
   H394       1.0     0.301231     0.649634     0.797020    Uiso  ? H
   C645       1.0     0.348888     0.648240     0.791697    Uiso  ? C
   H395       1.0     0.345908     0.645557     0.768357    Uiso  ? H
   C646       1.0     0.376206     0.647850     0.807112    Uiso  ? C
   C647       1.0     0.376410     0.651482     0.837952    Uiso  ? C
   H396       1.0     0.396939     0.654673     0.847826    Uiso  ? H
   C648       1.0     0.405200     0.647701     0.791174    Uiso  ? C
   C649       1.0     0.544798     0.371009     0.288983    Uiso  ? C
   C650       1.0     0.545585     0.394959     0.311418    Uiso  ? C
   C651       1.0     0.547984     0.389146     0.342914    Uiso  ? C
   H397       1.0     0.545366     0.367563     0.352562    Uiso  ? H
   C652       1.0     0.550540     0.412827     0.362997    Uiso  ? C
   H398       1.0     0.548368     0.407520     0.385583    Uiso  ? H
   C653       1.0     0.551883     0.442587     0.352784    Uiso  ? C
   H399       1.0     0.550906     0.458953     0.369485    Uiso  ? H
   C654       1.0     0.547400     0.449323     0.322208    Uiso  ? C
   C655       1.0     0.545521     0.425400     0.302247    Uiso  ? C
   H400       1.0     0.545310     0.431697     0.279246    Uiso  ? H
   C656       1.0     0.549608     0.481000     0.312904    Uiso  ? C
   C657       1.0     0.515480     0.305552     0.202405    Uiso  ? C
   C658       1.0     0.497911     0.287517     0.180689    Uiso  ? C
   C659       1.0     0.491004     0.257647     0.187609    Uiso  ? C
   H401       1.0     0.495863     0.245871     0.208339    Uiso  ? H
   C660       1.0     0.480582     0.239532     0.166494    Uiso  ? C
   H402       1.0     0.481844     0.216246     0.168668    Uiso  ? H
   C661       1.0     0.474034     0.249550     0.137262    Uiso  ? C
   H403       1.0     0.464859     0.234236     0.120962    Uiso  ? H
   C662       1.0     0.478471     0.280000     0.131530    Uiso  ? C
   C663       1.0     0.490496     0.299151     0.152995    Uiso  ? C
   H404       1.0     0.492963     0.322400     0.148322    Uiso  ? H
   C664       1.0     0.468094     0.291760     0.103384    Uiso  ? C
   C665       1.0     0.462207     0.323758     0.795283    Uiso  ? C
   C666       1.0     0.469989     0.335187     0.765466    Uiso  ? C
   C667       1.0     0.486754     0.317549     0.746461    Uiso  ? C
   H405       1.0     0.488663     0.293790     0.749632    Uiso  ? H
   C668       1.0     0.499353     0.329882     0.720523    Uiso  ? C
   H406       1.0     0.513916     0.316351     0.705479    Uiso  ? H
   C669       1.0     0.493285     0.359095     0.712493    Uiso  ? C
   H407       1.0     0.503527     0.367185     0.691642    Uiso  ? H
   C670       1.0     0.474997     0.377077     0.730075    Uiso  ? C
   C671       1.0     0.462828     0.364361     0.756535    Uiso  ? C
   H408       1.0     0.449376     0.377306     0.770061    Uiso  ? H
   C672       1.0     0.464666     0.406056     0.720234    Uiso  ? C
   O325       1.0     0.305966     0.462253     0.106222    Uiso  ? O
   O326       1.0     0.259352     0.455589     0.891049    Uiso  ? O
   O327       1.0     0.313337     0.505700     0.878943    Uiso  ? O
   O328       1.0     0.275226     0.495170     0.850302    Uiso  ? O
   O329       1.0     0.339453     0.466517     0.828504    Uiso  ? O
   O330       1.0     0.294996     0.480884     0.819515    Uiso  ? O
   O331       1.0     0.333686     0.430933     0.893823    Uiso  ? O
   O332       1.0     0.305167     0.411587     0.859188    Uiso  ? O
   O333       1.0     0.406239     0.468847     0.251244    Uiso  ? O
   O334       1.0     0.366585     0.479433     0.280744    Uiso  ? O
   O335       1.0     0.364395     0.503803     0.218005    Uiso  ? O
   O336       1.0     0.338905     0.492605     0.258078    Uiso  ? O
   O337       1.0     0.334432     0.454542     0.208508    Uiso  ? O
   O338       1.0     0.303803     0.444165     0.244472    Uiso  ? O
   O339       1.0     0.407608     0.433257     0.241060    Uiso  ? O
   O340       1.0     0.364355     0.411254     0.238317    Uiso  ? O
   O341       1.0     0.377893     0.666872     0.152836    Uiso  ? O
   O342       1.0     0.342573     0.700022     0.156135    Uiso  ? O
   O343       1.0     0.372192     0.635346     0.897648    Uiso  ? O
   O344       1.0     0.329670     0.662337     0.101058    Uiso  ? O
   O345       1.0     0.329710     0.598848     0.129163    Uiso  ? O
   O346       1.0     0.304872     0.638730     0.115296    Uiso  ? O
   O347       1.0     0.342098     0.595322     0.162461    Uiso  ? O
   O348       1.0     0.336546     0.635865     0.188405    Uiso  ? O
   O349       1.0     0.547332     0.376951     0.261378    Uiso  ? O
   O350       1.0     0.538800     0.344211     0.296691    Uiso  ? O
   O351       1.0     0.498679     0.366839     0.223752    Uiso  ? O
   O352       1.0     0.499500     0.328193     0.253530    Uiso  ? O
   O353       1.0     0.532547     0.326201     0.191969    Uiso  ? O
   O354       1.0     0.515917     0.301512     0.230851    Uiso  ? O
   O355       1.0     0.567787     0.335842     0.196740    Uiso  ? O
   O356       1.0     0.588347     0.329909     0.239271    Uiso  ? O
   O357       1.0     0.476164     0.316442     0.896616    Uiso  ? O
   O358       1.0     0.453567     0.273816     0.885779    Uiso  ? O
   O359       1.0     0.426994     0.356133     0.881785    Uiso  ? O
   O360       1.0     0.411022     0.316575     0.855672    Uiso  ? O
   O361       1.0     0.456660     0.344344     0.814248    Uiso  ? O
   O362       1.0     0.468183     0.297220     0.804584    Uiso  ? O
   O363       1.0     0.503862     0.317780     0.865687    Uiso  ? O
   O364       1.0     0.488729     0.284841     0.832487    Uiso  ? O
   O365       1.0     0.584611     0.513398     0.237159    Uiso  ? O
   O366       1.0     0.595623     0.532744     0.280842    Uiso  ? O
   O367       1.0     0.546699     0.572140     0.258282    Uiso  ? O
   O368       1.0     0.528287     0.574416     0.302964    Uiso  ? O
   O369       1.0     0.508399     0.505214     0.280125    Uiso  ? O
   O370       1.0     0.511754     0.542041     0.312638    Uiso  ? O
   O371       1.0     0.543868     0.488915     0.286120    Uiso  ? O
   O372       1.0     0.556851     0.499878     0.331443    Uiso  ? O
   O373       1.0     0.383917     0.484111     0.879269    Uiso  ? O
   O374       1.0     0.403119     0.454265     0.172354    Uiso  ? O
   O375       1.0     0.403441     0.596964     0.155083    Uiso  ? O
   O376       1.0     0.550791     0.404569     0.195262    Uiso  ? O
   O377       1.0     0.488226     0.388571     0.861223    Uiso  ? O
   O378       1.0     0.522729     0.521268     0.216103    Uiso  ? O
   Zn73       1.0     0.337855     0.470087     0.872486    Uiso  ? Zn
   Zn74       1.0     0.276027     0.447788     0.847613    Uiso  ? Zn
   Zn75       1.0     0.381558     0.460770     0.214071    Uiso  ? Zn
   Zn76       1.0     0.343159     0.443195     0.263745    Uiso  ? Zn
   Zn77       1.0     0.369186     0.622404     0.140388    Uiso  ? Zn
   Zn78       1.0     0.319017     0.662210     0.151959    Uiso  ? Zn
   Zn79       1.0     0.540302     0.366023     0.216484    Uiso  ? Zn
   Zn80       1.0     0.547682     0.318044     0.261156    Uiso  ? Zn
   Zn81       1.0     0.466172     0.347884     0.860810    Uiso  ? Zn
   Zn82       1.0     0.442348     0.286871     0.842012    Uiso  ? Zn
   Zn83       1.0     0.545889     0.525098     0.254695    Uiso  ? Zn
   Zn84       1.0     0.562509     0.543421     0.314153    Uiso  ? Zn
   C673       1.0     0.717714     0.555188     0.871579    Uiso  ? C
   C674       1.0     0.728620     0.550712     0.840605    Uiso  ? C
   C675       1.0     0.758667     0.548005     0.833636    Uiso  ? C
   H409       1.0     0.774847     0.546090     0.849825    Uiso  ? H
   C676       1.0     0.767405     0.546574     0.803322    Uiso  ? C
   H410       1.0     0.790399     0.544213     0.795354    Uiso  ? H
   C677       1.0     0.745026     0.542398     0.781475    Uiso  ? C
   H411       1.0     0.750586     0.535659     0.758321    Uiso  ? H
   C678       1.0     0.715036     0.544748     0.788056    Uiso  ? C
   C679       1.0     0.707110     0.549126     0.817853    Uiso  ? C
   H412       1.0     0.684555     0.549308     0.824053    Uiso  ? H
   C680       1.0     0.689816     0.537463     0.767436    Uiso  ? C
   C681       1.0     0.705694     0.509408     0.125650    Uiso  ? C
   C682       1.0     0.716052     0.479143     0.124841    Uiso  ? C
   C683       1.0     0.746024     0.471075     0.127158    Uiso  ? C
   H413       1.0     0.762854     0.486858     0.131878    Uiso  ? H
   C684       1.0     0.754960     0.441837     0.122605    Uiso  ? C
   H414       1.0     0.778204     0.435562     0.125222    Uiso  ? H
   C685       1.0     0.735039     0.420285     0.113497    Uiso  ? C
   H415       1.0     0.742215     0.397650     0.109163    Uiso  ? H
   C686       1.0     0.703895     0.427909     0.112150    Uiso  ? C
   C687       1.0     0.694263     0.455911     0.119987    Uiso  ? C
   H416       1.0     0.670922     0.462290     0.115522    Uiso  ? H
   C688       1.0     0.681830     0.407116     0.899667    Uiso  ? C
   C689       1.0     0.680124     0.547761     0.177339    Uiso  ? C
   C690       1.0     0.672223     0.537923     0.207249    Uiso  ? C
   C691       1.0     0.693952     0.532023     0.228088    Uiso  ? C
   H417       1.0     0.715069     0.528721     0.220945    Uiso  ? H
   C692       1.0     0.686144     0.523504     0.257022    Uiso  ? C
   H418       1.0     0.705876     0.517400     0.270748    Uiso  ? H
   C693       1.0     0.657208     0.518809     0.264449    Uiso  ? C
   H419       1.0     0.652275     0.513493     0.287769    Uiso  ? H
   C694       1.0     0.634904     0.525950     0.244943    Uiso  ? C
   C695       1.0     0.642457     0.533276     0.214959    Uiso  ? C
   H420       1.0     0.624732     0.536917     0.201092    Uiso  ? H
   C696       1.0     0.603993     0.523717     0.254981    Uiso  ? C
   C697       1.0     0.668009     0.617209     0.123781    Uiso  ? C
   C698       1.0     0.655770     0.647767     0.123583    Uiso  ? C
   C699       1.0     0.672962     0.671780     0.114377    Uiso  ? C
   H421       1.0     0.695594     0.667739     0.108722    Uiso  ? H
   C700       1.0     0.659127     0.697803     0.105462    Uiso  ? C
   H422       1.0     0.670825     0.712663     0.895647    Uiso  ? H
   C701       1.0     0.628784     0.704202     0.112842    Uiso  ? C
   H423       1.0     0.617694     0.724558     0.103104    Uiso  ? H
   C702       1.0     0.612551     0.681350     0.125921    Uiso  ? C
   C703       1.0     0.625465     0.653761     0.129397    Uiso  ? C
   H424       1.0     0.611608     0.637765     0.140022    Uiso  ? H
   C704       1.0     0.580308     0.685734     0.132569    Uiso  ? C
   C705       1.0     0.601949     0.497479     0.707205    Uiso  ? C
   C706       1.0     0.580073     0.484854     0.686852    Uiso  ? C
   C707       1.0     0.590695     0.470667     0.661130    Uiso  ? C
   H425       1.0     0.614308     0.471858     0.655743    Uiso  ? H
   C708       1.0     0.570410     0.458829     0.641347    Uiso  ? C
   H426       1.0     0.577921     0.450817     0.619900    Uiso  ? H
   C709       1.0     0.541205     0.453644     0.650897    Uiso  ? C
   H427       1.0     0.529177     0.436201     0.640042    Uiso  ? H
   C710       1.0     0.531516     0.466548     0.677499    Uiso  ? C
   C711       1.0     0.550869     0.483316     0.694267    Uiso  ? C
   H428       1.0     0.544514     0.495096     0.713713    Uiso  ? H
   C712       1.0     0.500254     0.463103     0.688680    Uiso  ? C
   C713       1.0     0.644072     0.467520     0.755130    Uiso  ? C
   C714       1.0     0.650247     0.435819     0.757460    Uiso  ? C
   C715       1.0     0.659533     0.419801     0.732436    Uiso  ? C
   H429       1.0     0.658182     0.429320     0.711650    Uiso  ? H
   C716       1.0     0.663924     0.390581     0.735300    Uiso  ? C
   H430       1.0     0.668936     0.375934     0.717350    Uiso  ? H
   C717       1.0     0.658668     0.376170     0.762741    Uiso  ? C
   H431       1.0     0.662036     0.351929     0.764503    Uiso  ? H
   C718       1.0     0.650720     0.392185     0.788995    Uiso  ? C
   C719       1.0     0.647030     0.423050     0.785334    Uiso  ? C
   H432       1.0     0.638862     0.436638     0.804036    Uiso  ? H
   C720       1.0     0.647777     0.378746     0.818042    Uiso  ? C
   C721       1.0     0.599513     0.568081     0.738875    Uiso  ? C
   C722       1.0     0.583235     0.596356     0.734262    Uiso  ? C
   C723       1.0     0.598756     0.620722     0.722802    Uiso  ? C
   H433       1.0     0.622693     0.618796     0.719473    Uiso  ? H
   C724       1.0     0.584067     0.648704     0.720425    Uiso  ? C
   H434       1.0     0.594829     0.667753     0.712135    Uiso  ? H
   C725       1.0     0.554090     0.651193     0.727783    Uiso  ? C
   H435       1.0     0.543622     0.671598     0.725260    Uiso  ? H
   C726       1.0     0.537895     0.626817     0.737670    Uiso  ? C
   C727       1.0     0.552522     0.599403     0.740251    Uiso  ? C
   H436       1.0     0.541758     0.579411     0.748505    Uiso  ? H
   C728       1.0     0.506218     0.630429     0.745046    Uiso  ? C
   C729       1.0     0.615713     0.321026     0.859346    Uiso  ? C
   C730       1.0     0.592785     0.298791     0.851447    Uiso  ? C
   C731       1.0     0.599633     0.275447     0.832320    Uiso  ? C
   H437       1.0     0.622831     0.272229     0.825293    Uiso  ? H
   C732       1.0     0.578731     0.255102     0.822713    Uiso  ? C
   H438       1.0     0.583692     0.234624     0.811749    Uiso  ? H
   C733       1.0     0.548306     0.261845     0.827896    Uiso  ? C
   H439       1.0     0.531394     0.246240     0.820902    Uiso  ? H
   C734       1.0     0.540522     0.287806     0.844067    Uiso  ? C
   C735       1.0     0.562249     0.305505     0.857966    Uiso  ? C
   H440       1.0     0.555921     0.325131     0.873312    Uiso  ? H
   C736       1.0     0.509356     0.297382     0.847808    Uiso  ? C
   C737       1.0     0.650851     0.334750     0.118382    Uiso  ? C
   C738       1.0     0.646999     0.325258     0.149600    Uiso  ? C
   C739       1.0     0.671331     0.312406     0.163766    Uiso  ? C
   H441       1.0     0.691147     0.309189     0.150295    Uiso  ? H
   C740       1.0     0.667634     0.304969     0.193182    Uiso  ? C
   H442       1.0     0.685143     0.294673     0.205617    Uiso  ? H
   C741       1.0     0.641884     0.310724     0.209789    Uiso  ? C
   H443       1.0     0.640566     0.303129     0.233169    Uiso  ? H
   C742       1.0     0.618766     0.324250     0.194846    Uiso  ? C
   C743       1.0     0.620485     0.331187     0.164123    Uiso  ? C
   H444       1.0     0.602786     0.341382     0.150800    Uiso  ? H
   C744       1.0     0.590129     0.329223     0.211266    Uiso  ? C
   C745       1.0     0.439759     0.614291     0.708856    Uiso  ? C
   C746       1.0     0.437141     0.592873     0.683366    Uiso  ? C
   C747       1.0     0.438410     0.601750     0.653990    Uiso  ? C
   H445       1.0     0.442173     0.625892     0.648549    Uiso  ? H
   C748       1.0     0.438596     0.580261     0.631242    Uiso  ? C
   H446       1.0     0.443644     0.586842     0.608530    Uiso  ? H
   C749       1.0     0.439770     0.549654     0.638838    Uiso  ? C
   H447       1.0     0.442013     0.533163     0.621497    Uiso  ? H
   C750       1.0     0.437276     0.540765     0.668659    Uiso  ? C
   C751       1.0     0.434185     0.562825     0.690031    Uiso  ? C
   H448       1.0     0.430307     0.556849     0.713380    Uiso  ? H
   C752       1.0     0.442164     0.509608     0.678040    Uiso  ? C
   C753       1.0     0.479674     0.674640     0.795942    Uiso  ? C
   C754       1.0     0.497361     0.693558     0.816438    Uiso  ? C
   C755       1.0     0.516046     0.716013     0.804731    Uiso  ? C
   H449       1.0     0.516328     0.722454     0.781781    Uiso  ? H
   C756       1.0     0.533388     0.734177     0.823174    Uiso  ? C
   H450       1.0     0.545228     0.753254     0.815171    Uiso  ? H
   C757       1.0     0.536599     0.726996     0.853843    Uiso  ? C
   H451       1.0     0.554017     0.739000     0.866475    Uiso  ? H
   C758       1.0     0.518387     0.704537     0.865665    Uiso  ? C
   C759       1.0     0.499311     0.687980     0.847502    Uiso  ? C
   H452       1.0     0.482987     0.673242     0.858259    Uiso  ? H
   C760       1.0     0.516674     0.702043     0.897659    Uiso  ? C
   C761       1.0     0.519911     0.668003     0.204943    Uiso  ? C
   C762       1.0     0.519190     0.657400     0.235710    Uiso  ? C
   C763       1.0     0.518380     0.678443     0.258975    Uiso  ? C
   H453       1.0     0.519869     0.702469     0.255786    Uiso  ? H
   C764       1.0     0.516099     0.666785     0.288246    Uiso  ? C
   H454       1.0     0.514473     0.680562     0.307306    Uiso  ? H
   C765       1.0     0.518493     0.636247     0.294053    Uiso  ? C
   H455       1.0     0.516438     0.629608     0.316703    Uiso  ? H
   C766       1.0     0.525276     0.616173     0.271700    Uiso  ? C
   C767       1.0     0.525489     0.627613     0.242830    Uiso  ? C
   H456       1.0     0.529031     0.613264     0.225781    Uiso  ? H
   C768       1.0     0.532172     0.586387     0.277975    Uiso  ? C
   O379       1.0     0.690553     0.559388     0.875854    Uiso  ? O
   O380       1.0     0.734690     0.552143     0.894189    Uiso  ? O
   O381       1.0     0.678058     0.516404     0.128743    Uiso  ? O
   O382       1.0     0.723197     0.530296     0.121691    Uiso  ? O
   O383       1.0     0.664330     0.538111     0.156150    Uiso  ? O
   O384       1.0     0.702976     0.565843     0.173392    Uiso  ? O
   O385       1.0     0.653558     0.596421     0.135570    Uiso  ? O
   O386       1.0     0.691820     0.611919     0.110167    Uiso  ? O
   O387       1.0     0.592597     0.511074     0.729409    Uiso  ? O
   O388       1.0     0.629297     0.494597     0.703264    Uiso  ? O
   O389       1.0     0.625984     0.479127     0.772639    Uiso  ? O
   O390       1.0     0.656260     0.483618     0.735012    Uiso  ? O
   O391       1.0     0.663321     0.533625     0.777346    Uiso  ? O
   O392       1.0     0.694094     0.537122     0.740033    Uiso  ? O
   O393       1.0     0.586978     0.543678     0.746610    Uiso  ? O
   O394       1.0     0.626887     0.566408     0.733348    Uiso  ? O
   O395       1.0     0.608681     0.342159     0.876649    Uiso  ? O
   O396       1.0     0.641334     0.320101     0.847118    Uiso  ? O
   O397       1.0     0.629896     0.348749     0.107889    Uiso  ? O
   O398       1.0     0.675402     0.333210     0.104416    Uiso  ? O
   O399       1.0     0.653957     0.411163     0.105734    Uiso  ? O
   O400       1.0     0.690883     0.385760     0.883798    Uiso  ? O
   O401       1.0     0.645763     0.396492     0.839110    Uiso  ? O
   O402       1.0     0.649748     0.350331     0.822808    Uiso  ? O
   O403       1.0     0.440717     0.604253     0.735766    Uiso  ? O
   O404       1.0     0.444518     0.641364     0.704480    Uiso  ? O
   O405       1.0     0.493222     0.609583     0.758479    Uiso  ? O
   O406       1.0     0.492521     0.654932     0.739618    Uiso  ? O
   O407       1.0     0.462167     0.654357     0.805918    Uiso  ? O
   O408       1.0     0.482612     0.678807     0.768155    Uiso  ? O
   O409       1.0     0.429122     0.647162     0.806058    Uiso  ? O
   O410       1.0     0.407377     0.646569     0.763697    Uiso  ? O
   O411       1.0     0.498346     0.686285     0.110557    Uiso  ? O
   O412       1.0     0.535172     0.717018     0.115012    Uiso  ? O
   O413       1.0     0.566216     0.664837     0.146172    Uiso  ? O
   O414       1.0     0.567481     0.709472     0.126693    Uiso  ? O
   O415       1.0     0.505606     0.654355     0.184194    Uiso  ? O
   O416       1.0     0.535987     0.690427     0.198944    Uiso  ? O
   O417       1.0     0.483821     0.694286     0.149120    Uiso  ? O
   O418       1.0     0.499347     0.739205     0.163910    Uiso  ? O
   O419       1.0     0.417666     0.488151     0.735917    Uiso  ? O
   O420       1.0     0.401102     0.448431     0.712894    Uiso  ? O
   O421       1.0     0.452520     0.422959     0.739090    Uiso  ? O
   O422       1.0     0.468921     0.415488     0.694513    Uiso  ? O
   O423       1.0     0.491381     0.481233     0.708137    Uiso  ? O
   O424       1.0     0.484746     0.440672     0.680628    Uiso  ? O
   O425       1.0     0.447776     0.505798     0.706116    Uiso  ? O
   O426       1.0     0.437860     0.487661     0.660352    Uiso  ? O
   O427       1.0     0.622762     0.549603     0.895766    Uiso  ? O
   O428       1.0     0.595059     0.538764     0.809180    Uiso  ? O
   O429       1.0     0.589295     0.414192     0.877321    Uiso  ? O
   O430       1.0     0.446311     0.575024     0.807489    Uiso  ? O
   O431       1.0     0.510414     0.624046     0.121738    Uiso  ? O
   O432       1.0     0.474262     0.483756     0.776103    Uiso  ? O
   Zn85       1.0     0.662213     0.557972     0.113738    Uiso  ? Zn
   Zn86       1.0     0.717592     0.577170     0.131221    Uiso  ? Zn
   Zn87       1.0     0.616713     0.522004     0.769841    Uiso  ? Zn
   Zn88       1.0     0.654623     0.531055     0.718903    Uiso  ? Zn
   Zn89       1.0     0.628753     0.385822     0.879913    Uiso  ? Zn
   Zn90       1.0     0.680164     0.344926     0.860194    Uiso  ? Zn
   Zn91       1.0     0.453068     0.613854     0.780625    Uiso  ? Zn
   Zn92       1.0     0.444649     0.665980     0.741990    Uiso  ? Zn
   Zn93       1.0     0.519538     0.662889     0.143673    Uiso  ? Zn
   Zn94       1.0     0.541436     0.720202     0.164106    Uiso  ? Zn
   Zn95       1.0     0.457652     0.470329     0.736550    Uiso  ? Zn
   Zn96       1.0     0.437216     0.444213     0.680541    Uiso  ? Zn
   H457       1.0     0.595457     0.526771     0.826269    Uiso  ? H
   H458       1.0     0.583586     0.556619     0.807442    Uiso  ? H
   H459       1.0     0.402220     0.437160     0.160307    Uiso  ? H
   H460       1.0     0.409203     0.471798     0.163973    Uiso  ? H
   H461       1.0     0.502868     0.511585     0.213174    Uiso  ? H
   H462       1.0     0.533071     0.527685     0.198697    Uiso  ? H
   H463       1.0     0.543251     0.406142     0.174539    Uiso  ? H
   H464       1.0     0.554428     0.423112     0.205722    Uiso  ? H
   H465       1.0     0.471901     0.504804     0.776738    Uiso  ? H
   H466       1.0     0.477120     0.470496     0.792454    Uiso  ? H
   H467       1.0     0.389242     0.503399     0.888899    Uiso  ? H
   H468       1.0     0.400396     0.473846     0.871148    Uiso  ? H
   H469       1.0     0.499449     0.396772     0.877550    Uiso  ? H
   H470       1.0     0.486670     0.400198     0.842580    Uiso  ? H
   H471       1.0     0.454616     0.573189     0.828100    Uiso  ? H
   H472       1.0     0.439979     0.558536     0.795691    Uiso  ? H
   H473       1.0     0.404024     0.582280     0.170796    Uiso  ? H
   H474       1.0     0.422154     0.602168     0.145373    Uiso  ? H
   H475       1.0     0.527637     0.611529     0.125400    Uiso  ? H
   H476       1.0     0.500491     0.621820     0.102058    Uiso  ? H
   H477       1.0     0.570241     0.405079     0.880245    Uiso  ? H
   H478       1.0     0.590309     0.435866     0.877199    Uiso  ? H
   H479       1.0     0.608448     0.563553     0.897499    Uiso  ? H
   H480       1.0     0.620377     0.533150     0.881435    Uiso  ? H
   H481       1.0     0.394694     0.319449     0.419871    Uiso  ? H
   N1         1.0     0.424742     0.355133     0.418451    Uiso  ? N
   H482       1.0     0.452158     0.392782     0.412260    Uiso  ? H
   C769       1.0     0.398575     0.341626     0.411082    Uiso  ? C
   C770       1.0     0.430808     0.382946     0.407807    Uiso  ? C
   C771       1.0     0.378725     0.356266     0.391530    Uiso  ? C
   C772       1.0     0.410157     0.397850     0.389988    Uiso  ? C
   H483       1.0     0.360492     0.341797     0.384338    Uiso  ? H
   H484       1.0     0.414830     0.419733     0.381392    Uiso  ? H
   C773       1.0     0.383855     0.384559     0.379708    Uiso  ? C
   C774       1.0     0.366175     0.398212     0.356012    Uiso  ? C
   H485       1.0     0.355345     0.356743     0.332122    Uiso  ? H
   H486       1.0     0.364622     0.444342     0.373124    Uiso  ? H
   C775       1.0     0.355622     0.380470     0.333111    Uiso  ? C
   C776       1.0     0.360767     0.428180     0.354386    Uiso  ? C
   C777       1.0     0.344461     0.392771     0.307399    Uiso  ? C
   C778       1.0     0.350075     0.440262     0.328132    Uiso  ? C
   H487       1.0     0.337563     0.378828     0.289952    Uiso  ? H
   N2         1.0     0.344871     0.423054     0.303652    Uiso  ? N
   H488       1.0     0.350530     0.464216     0.326688    Uiso  ? H
   H489       1.0     0.650354     0.868280     0.256039    Uiso  ? H
   N3         1.0     0.658399     0.829410     0.280515    Uiso  ? N
   H490       1.0     0.667172     0.786444     0.297612    Uiso  ? H
   C779       1.0     0.649695     0.844514     0.255686    Uiso  ? C
   C780       1.0     0.658714     0.798994     0.280094    Uiso  ? C
   C781       1.0     0.634484     0.829914     0.232424    Uiso  ? C
   C782       1.0     0.644742     0.783653     0.257927    Uiso  ? C
   H491       1.0     0.624916     0.839994     0.212567    Uiso  ? H
   H492       1.0     0.640777     0.760421     0.262079    Uiso  ? H
   C783       1.0     0.631087     0.798779     0.233995    Uiso  ? C
   C784       1.0     0.612043     0.782441     0.212347    Uiso  ? C
   H493       1.0     0.641724     0.742755     0.210266    Uiso  ? H
   H494       1.0     0.577182     0.814329     0.213923    Uiso  ? H
   C785       1.0     0.620277     0.753004     0.203081    Uiso  ? C
   C786       1.0     0.583759     0.792480     0.206539    Uiso  ? C
   C787       1.0     0.599888     0.735390     0.188098    Uiso  ? C
   C788       1.0     0.563614     0.774096     0.190865    Uiso  ? C
   H495       1.0     0.606691     0.715392     0.179179    Uiso  ? H
   N4         1.0     0.571559     0.745792     0.182447    Uiso  ? N
   H496       1.0     0.541545     0.781454     0.186142    Uiso  ? H
   H497       1.0     0.637329     0.646225     0.549065    Uiso  ? H
   N5         1.0     0.596105     0.643813     0.574677    Uiso  ? N
   H498       1.0     0.557270     0.637405     0.601470    Uiso  ? H
   C789       1.0     0.624652     0.634885     0.566855    Uiso  ? C
   C790       1.0     0.580759     0.631807     0.597196    Uiso  ? C
   C791       1.0     0.639324     0.614447     0.585902    Uiso  ? C
   C792       1.0     0.595528     0.611540     0.616127    Uiso  ? C
   H499       1.0     0.661517     0.605296     0.578010    Uiso  ? H
   H500       1.0     0.583293     0.598305     0.633319    Uiso  ? H
   C793       1.0     0.625547     0.605425     0.612076    Uiso  ? C
   C794       1.0     0.640970     0.586917     0.633295    Uiso  ? C
   H501       1.0     0.652976     0.623063     0.661117    Uiso  ? H
   H502       1.0     0.626501     0.545826     0.611532    Uiso  ? H
   C795       1.0     0.653089     0.599496     0.658725    Uiso  ? C
   C796       1.0     0.636750     0.555977     0.631957    Uiso  ? C
   C797       1.0     0.660813     0.581352     0.682150    Uiso  ? C
   C798       1.0     0.647762     0.538642     0.654893    Uiso  ? C
   H503       1.0     0.666893     0.592842     0.702803    Uiso  ? H
   N6         1.0     0.654867     0.551586     0.680636    Uiso  ? N
   H504       1.0     0.644937     0.514997     0.655357    Uiso  ? H
   H505       1.0     0.325681     0.210159     0.707536    Uiso  ? H
   N7         1.0     0.340409     0.169067     0.724763    Uiso  ? N
   H506       1.0     0.356800     0.130091     0.747770    Uiso  ? H
   C799       1.0     0.334529     0.198708     0.727157    Uiso  ? C
   C800       1.0     0.353871     0.154104     0.748310    Uiso  ? C
   C801       1.0     0.343780     0.214895     0.751804    Uiso  ? C
   C802       1.0     0.362818     0.168882     0.773567    Uiso  ? C
   H507       1.0     0.338843     0.238456     0.752408    Uiso  ? H
   H508       1.0     0.371114     0.157034     0.791538    Uiso  ? H
   C803       1.0     0.361038     0.199310     0.773971    Uiso  ? C
   C804       1.0     0.378248     0.216924     0.794564    Uiso  ? C
   H509       1.0     0.340931     0.242292     0.812348    Uiso  ? H
   H510       1.0     0.418349     0.194401     0.780916    Uiso  ? H
   C805       1.0     0.365318     0.239929     0.811028    Uiso  ? C
   C806       1.0     0.408839     0.211972     0.794404    Uiso  ? C
   C807       1.0     0.384842     0.259784     0.824962    Uiso  ? C
   C808       1.0     0.426097     0.231926     0.810083    Uiso  ? C
   H511       1.0     0.376466     0.278644     0.834867    Uiso  ? H
   N8         1.0     0.414861     0.254272     0.825020    Uiso  ? N
   H512       1.0     0.448878     0.231500     0.806169    Uiso  ? H
   H513       1.0     0.618109     0.406604     0.549617    Uiso  ? H
   N9         1.0     0.649985     0.416595     0.582037    Uiso  ? N
   H514       1.0     0.679188     0.426888     0.617430    Uiso  ? H
   C809       1.0     0.624748     0.404844     0.572837    Uiso  ? C
   C810       1.0     0.660416     0.414904     0.610753    Uiso  ? C
   C811       1.0     0.606094     0.390883     0.593304    Uiso  ? C
   C812       1.0     0.641176     0.402463     0.631367    Uiso  ? C
   H515       1.0     0.585907     0.382442     0.586086    Uiso  ? H
   H516       1.0     0.647946     0.401704     0.655095    Uiso  ? H
   C813       1.0     0.614539     0.389030     0.623334    Uiso  ? C
   C814       1.0     0.599286     0.369009     0.643899    Uiso  ? C
   H517       1.0     0.636532     0.344824     0.662721    Uiso  ? H
   H518       1.0     0.555868     0.385640     0.627990    Uiso  ? H
   C815       1.0     0.613980     0.347233     0.661073    Uiso  ? C
   C816       1.0     0.567818     0.369191     0.642530    Uiso  ? C
   C817       1.0     0.597489     0.323616     0.671994    Uiso  ? C
   C818       1.0     0.552686     0.343741     0.651973    Uiso  ? C
   H519       1.0     0.606342     0.306147     0.684220    Uiso  ? H
   N10        1.0     0.567734     0.322340     0.666660    Uiso  ? N
   H520       1.0     0.528977     0.339929     0.646881    Uiso  ? H
   H521       1.0     0.791400     0.707501     0.648507    Uiso  ? H
   N11        1.0     0.833332     0.717218     0.635527    Uiso  ? N
   H522       1.0     0.875138     0.736571     0.623232    Uiso  ? H
   C819       1.0     0.804096     0.723686     0.639880    Uiso  ? C
   C820       1.0     0.852192     0.739657     0.625653    Uiso  ? C
   C821       1.0     0.791600     0.751382     0.631429    Uiso  ? C
   C822       1.0     0.840370     0.766337     0.614625    Uiso  ? C
   H523       1.0     0.766953     0.753576     0.631091    Uiso  ? H
   H524       1.0     0.854833     0.780154     0.604554    Uiso  ? H
   C823       1.0     0.809570     0.771713     0.617117    Uiso  ? C
   C824       1.0     0.794675     0.796318     0.601210    Uiso  ? C
   H525       1.0     0.765264     0.809445     0.637062    Uiso  ? H
   H526       1.0     0.818018     0.791164     0.559877    Uiso  ? H
   C825       1.0     0.770410     0.810568     0.613787    Uiso  ? C
   C826       1.0     0.801973     0.802846     0.572061    Uiso  ? C
   C827       1.0     0.754434     0.830085     0.595900    Uiso  ? C
   C828       1.0     0.786257     0.823244     0.555180    Uiso  ? C
   H527       1.0     0.736561     0.841920     0.606535    Uiso  ? H
   N12        1.0     0.762202     0.836304     0.567002    Uiso  ? N
   H528       1.0     0.791728     0.828210     0.532006    Uiso  ? H
   H529       1.0     0.130770     0.253540     0.346822    Uiso  ? H
   N13        1.0     0.167650     0.282886     0.347365    Uiso  ? N
   H530       1.0     0.207235     0.305383     0.341754    Uiso  ? H
   C829       1.0     0.153606     0.256733     0.352473    Uiso  ? C
   C830       1.0     0.196672     0.286645     0.351348    Uiso  ? C
   C831       1.0     0.168536     0.233117     0.366106    Uiso  ? C
   C832       1.0     0.213513     0.264785     0.365221    Uiso  ? C
   H531       1.0     0.157703     0.212998     0.368855    Uiso  ? H
   H532       1.0     0.235752     0.270212     0.372001    Uiso  ? H
   C833       1.0     0.199691     0.237886     0.373830    Uiso  ? C
   C834       1.0     0.215723     0.216083     0.392364    Uiso  ? C
   H533       1.0     0.179354     0.198931     0.417233    Uiso  ? H
   H534       1.0     0.258220     0.226708     0.373051    Uiso  ? H
   C835       1.0     0.203294     0.199722     0.415578    Uiso  ? C
   C836       1.0     0.246913     0.214093     0.389178    Uiso  ? C
   C837       1.0     0.222028     0.187224     0.436087    Uiso  ? C
   C838       1.0     0.265086     0.204644     0.411639    Uiso  ? C
   H535       1.0     0.211872     0.175646     0.453971    Uiso  ? H
   N14        1.0     0.252061     0.190621     0.434502    Uiso  ? N
   H536       1.0     0.291182     0.203560     0.410603    Uiso  ? H
   H537       1.0     0.397516     0.686121     0.329046    Uiso  ? H
   N15        1.0     0.436857     0.668292     0.344479    Uiso  ? N
   H538       1.0     0.474848     0.643154     0.354104    Uiso  ? H
   C839       1.0     0.407585     0.667566     0.338497    Uiso  ? C
   C840       1.0     0.451080     0.643401     0.353099    Uiso  ? C
   C841       1.0     0.389517     0.643609     0.348757    Uiso  ? C
   C842       1.0     0.435903     0.619532     0.362165    Uiso  ? C
   H539       1.0     0.365414     0.646321     0.347683    Uiso  ? H
   H540       1.0     0.448104     0.602296     0.371855    Uiso  ? H
   C843       1.0     0.405114     0.619457     0.361169    Uiso  ? C
   C844       1.0     0.387877     0.600923     0.381392    Uiso  ? C
   H541       1.0     0.352449     0.588661     0.350569    Uiso  ? H
   H542       1.0     0.415118     0.608438     0.420905    Uiso  ? H
   C845       1.0     0.361464     0.587827     0.372155    Uiso  ? C
   C846       1.0     0.394430     0.599707     0.412851    Uiso  ? C
   C847       1.0     0.342034     0.574998     0.392732    Uiso  ? C
   C848       1.0     0.373663     0.588056     0.432854    Uiso  ? C
   H543       1.0     0.320830     0.564427     0.384003    Uiso  ? H
   N16        1.0     0.348448     0.575197     0.422882    Uiso  ? N
   H544       1.0     0.379026     0.589966     0.456775    Uiso  ? H
   H545       1.0     0.690584     0.677332     0.387190    Uiso  ? H
   N17        1.0     0.672436     0.664380     0.428687    Uiso  ? N
   H546       1.0     0.645275     0.649046     0.466272    Uiso  ? H
   C849       1.0     0.672959     0.666890     0.398719    Uiso  ? C
   C850       1.0     0.647085     0.653184     0.442610    Uiso  ? C
   C851       1.0     0.651075     0.653130     0.381163    Uiso  ? C
   C852       1.0     0.624752     0.639458     0.425425    Uiso  ? C
   H547       1.0     0.654219     0.651114     0.357286    Uiso  ? H
   H548       1.0     0.608044     0.628889     0.436905    Uiso  ? H
   C853       1.0     0.626064     0.638244     0.394856    Uiso  ? C
   C854       1.0     0.608737     0.616133     0.376721    Uiso  ? C
   H549       1.0     0.610452     0.580902     0.410246    Uiso  ? H
   H550       1.0     0.598372     0.645810     0.338517    Uiso  ? H
   C855       1.0     0.604969     0.586680     0.387893    Uiso  ? C
   C856       1.0     0.597116     0.623080     0.348193    Uiso  ? C
   C857       1.0     0.593309     0.564951     0.370446    Uiso  ? C
   C858       1.0     0.587114     0.599208     0.331285    Uiso  ? C
   H551       1.0     0.592219     0.541610     0.380014    Uiso  ? H
   N18        1.0     0.584609     0.571119     0.341334    Uiso  ? N
   H552       1.0     0.582878     0.605352     0.309119    Uiso  ? H
   H553       1.0     0.192917     0.542984     0.207760    Uiso  ? H
   N19        1.0     0.187897     0.566488     0.247614    Uiso  ? N
   H554       1.0     0.188665     0.592930     0.285401    Uiso  ? H
   C859       1.0     0.195245     0.563413     0.218567    Uiso  ? C
   C860       1.0     0.192826     0.591675     0.261986    Uiso  ? C
   C861       1.0     0.208553     0.586804     0.202930    Uiso  ? C
   C862       1.0     0.208099     0.615270     0.248453    Uiso  ? C
   H555       1.0     0.213772     0.583656     0.178635    Uiso  ? H
   H556       1.0     0.212831     0.634547     0.260832    Uiso  ? H
   C863       1.0     0.216952     0.613146     0.218105    Uiso  ? C
   C864       1.0     0.236342     0.634479     0.201976    Uiso  ? C
   H557       1.0     0.217220     0.629014     0.157958    Uiso  ? H
   H558       1.0     0.262583     0.645214     0.241836    Uiso  ? H
   C865       1.0     0.233387     0.638721     0.172175    Uiso  ? C
   C866       1.0     0.260042     0.646940     0.217088    Uiso  ? C
   C867       1.0     0.256430     0.654014     0.157241    Uiso  ? C
   C868       1.0     0.282526     0.660406     0.202362    Uiso  ? C
   H559       1.0     0.254544     0.656221     0.132789    Uiso  ? H
   N20        1.0     0.280797     0.662707     0.172357    Uiso  ? N
   H560       1.0     0.301169     0.665869     0.213907    Uiso  ? H
   H561       1.0     0.335967     0.348438     0.534238    Uiso  ? H
   N21        1.0     0.311802     0.333290     0.570778    Uiso  ? N
   H562       1.0     0.292935     0.317809     0.611774    Uiso  ? H
   C869       1.0     0.336908     0.344056     0.557128    Uiso  ? C
   C870       1.0     0.312385     0.328156     0.601066    Uiso  ? C
   C871       1.0     0.361735     0.354032     0.573277    Uiso  ? C
   C872       1.0     0.336575     0.340100     0.617978    Uiso  ? C
   H563       1.0     0.381358     0.359934     0.560636    Uiso  ? H
   H564       1.0     0.334871     0.339303     0.642618    Uiso  ? H
   C873       1.0     0.360628     0.353859     0.604478    Uiso  ? C
   C874       1.0     0.382508     0.373143     0.620743    Uiso  ? C
   H565       1.0     0.389488     0.342949     0.660483    Uiso  ? H
   H566       1.0     0.376353     0.410766     0.590315    Uiso  ? H
   C875       1.0     0.393496     0.365038     0.649186    Uiso  ? C
   C876       1.0     0.386728     0.402674     0.611932    Uiso  ? C
   C877       1.0     0.410756     0.385746     0.665735    Uiso  ? C
   C878       1.0     0.403392     0.422726     0.629414    Uiso  ? C
   H567       1.0     0.419829     0.379494     0.687668    Uiso  ? H
   N22        1.0     0.415549     0.413025     0.655164    Uiso  ? N
   H568       1.0     0.407636     0.444355     0.622338    Uiso  ? H
   H569       1.0     0.826431     0.447408     0.783634    Uiso  ? H
   N23        1.0     0.824401     0.414729     0.752561    Uiso  ? N
   H570       1.0     0.822719     0.379263     0.722526    Uiso  ? H
   C879       1.0     0.819029     0.425111     0.779959    Uiso  ? C
   C880       1.0     0.817212     0.386880     0.744609    Uiso  ? C
   C881       1.0     0.800664     0.409586     0.799359    Uiso  ? C
   C882       1.0     0.798425     0.369861     0.763076    Uiso  ? C
   H571       1.0     0.792856     0.421789     0.819160    Uiso  ? H
   H572       1.0     0.791280     0.348039     0.754902    Uiso  ? H
   C883       1.0     0.788307     0.382256     0.789612    Uiso  ? C
   C884       1.0     0.764401     0.367993     0.806198    Uiso  ? C
   H573       1.0     0.783661     0.374608     0.848988    Uiso  ? H
   H574       1.0     0.739363     0.350129     0.768566    Uiso  ? H
   C885       1.0     0.764379     0.366072     0.837208    Uiso  ? C
   C886       1.0     0.739674     0.355343     0.792068    Uiso  ? C
   C887       1.0     0.742339     0.352363     0.853076    Uiso  ? C
   C888       1.0     0.716560     0.341103     0.808208    Uiso  ? C
   H575       1.0     0.741884     0.351831     0.877297    Uiso  ? H
   N24        1.0     0.717550     0.341777     0.838065    Uiso  ? N
   H576       1.0     0.696461     0.332962     0.798436    Uiso  ? H
   H577       1.0     0.866107     0.664274     0.224653    Uiso  ? H
   N25        1.0     0.832198     0.682144     0.251803    Uiso  ? N
   H578       1.0     0.795532     0.698326     0.279410    Uiso  ? H
   C889       1.0     0.842773     0.662720     0.231319    Uiso  ? C
   C890       1.0     0.803127     0.680811     0.262807    Uiso  ? C
   C891       1.0     0.824159     0.641586     0.220686    Uiso  ? C
   C892       1.0     0.783927     0.659956     0.250363    Uiso  ? C
   H579       1.0     0.832132     0.627554     0.201113    Uiso  ? H
   H580       1.0     0.761492     0.662046     0.256796    Uiso  ? H
   C893       1.0     0.794526     0.640532     0.227529    Uiso  ? C
   C894       1.0     0.773753     0.623069     0.208146    Uiso  ? C
   H581       1.0     0.741127     0.659090     0.201482    Uiso  ? H
   H582       1.0     0.798911     0.583039     0.209305    Uiso  ? H
   C895       1.0     0.748505     0.637570     0.195179    Uiso  ? C
   C896       1.0     0.780761     0.594191     0.198711    Uiso  ? C
   C897       1.0     0.731637     0.623174     0.172952    Uiso  ? C
   C898       1.0     0.765617     0.582238     0.174909    Uiso  ? C
   H583       1.0     0.712788     0.632981     0.162556    Uiso  ? H
   N26        1.0     0.743450     0.596933     0.161660    Uiso  ? N
   H584       1.0     0.772151     0.561516     0.165523    Uiso  ? H
   H585       1.0     0.683401     0.214183     0.198460    Uiso  ? H
   N27        1.0     0.650764     0.182018     0.189422    Uiso  ? N
   H586       1.0     0.619755     0.147647     0.191024    Uiso  ? H
   C899       1.0     0.661927     0.206236     0.203244    Uiso  ? C
   C900       1.0     0.625518     0.168412     0.198523    Uiso  ? C
   C901       1.0     0.646994     0.220746     0.225843    Uiso  ? C
   C902       1.0     0.607625     0.183822     0.218586    Uiso  ? C
   H587       1.0     0.656671     0.239796     0.234172    Uiso  ? H
   H588       1.0     0.587065     0.175002     0.224658    Uiso  ? H
   C903       1.0     0.618255     0.209313     0.233806    Uiso  ? C
   C904       1.0     0.598694     0.228225     0.252127    Uiso  ? C
   H589       1.0     0.632951     0.251671     0.277347    Uiso  ? H
   H590       1.0     0.555277     0.213867     0.235701    Uiso  ? H
   C905       1.0     0.610379     0.250986     0.270724    Uiso  ? C
   C906       1.0     0.566618     0.228926     0.249050    Uiso  ? C
   C907       1.0     0.594642     0.275611     0.278603    Uiso  ? C
   C908       1.0     0.551516     0.254336     0.255822    Uiso  ? C
   H591       1.0     0.604958     0.293273     0.288818    Uiso  ? H
   N28        1.0     0.565864     0.277279     0.268742    Uiso  ? N
   H592       1.0     0.528573     0.256211     0.251981    Uiso  ? H
   H593       1.0     0.399571     0.813133     0.852998    Uiso  ? H
   N29        1.0     0.355899     0.805112     0.834413    Uiso  ? N
   H594       1.0     0.316215     0.793891     0.813857    Uiso  ? H
   C909       1.0     0.385956     0.801894     0.835944    Uiso  ? C
   C910       1.0     0.340096     0.793327     0.811385    Uiso  ? C
   C911       1.0     0.401761     0.788912     0.812049    Uiso  ? C
   C912       1.0     0.354972     0.780294     0.787366    Uiso  ? C
   H595       1.0     0.426548     0.789726     0.812641    Uiso  ? H
   H596       1.0     0.340831     0.770590     0.769801    Uiso  ? H
   C913       1.0     0.386089     0.775834     0.789221    Uiso  ? C
   C914       1.0     0.400685     0.754291     0.767245    Uiso  ? C
   H597       1.0     0.361741     0.727860     0.759810    Uiso  ? H
   H598       1.0     0.444365     0.775263     0.763953    Uiso  ? H
   C915       1.0     0.384878     0.730256     0.754114    Uiso  ? C
   C916       1.0     0.430861     0.757175     0.758172    Uiso  ? C
   C917       1.0     0.399542     0.706487     0.740202    Uiso  ? C
   C918       1.0     0.445342     0.732175     0.744644    Uiso  ? C
   H599       1.0     0.387130     0.686094     0.735924    Uiso  ? H
   N30        1.0     0.429916     0.707766     0.737016    Uiso  ? N
   H600       1.0     0.469010     0.730365     0.744309    Uiso  ? H
   H601       1.0     0.119965     0.359468     0.755710    Uiso  ? H
   N31        1.0     0.155925     0.336197     0.736669    Uiso  ? N
   H602       1.0     0.195125     0.316518     0.723698    Uiso  ? H
   C919       1.0     0.142666     0.361219     0.748239    Uiso  ? C
   C920       1.0     0.185794     0.336010     0.731784    Uiso  ? C
   C921       1.0     0.159437     0.383754     0.760169    Uiso  ? C
   C922       1.0     0.203843     0.359193     0.742805    Uiso  ? C
   H603       1.0     0.148344     0.401414     0.773168    Uiso  ? H
   H604       1.0     0.227698     0.357083     0.742268    Uiso  ? H
   C923       1.0     0.190283     0.383192     0.757797    Uiso  ? C
   C924       1.0     0.209354     0.401831     0.778349    Uiso  ? C
   H605       1.0     0.176343     0.405539     0.814152    Uiso  ? H
   H606       1.0     0.248630     0.400768     0.749424    Uiso  ? H
   C925       1.0     0.198521     0.412166     0.805756    Uiso  ? C
   C926       1.0     0.240385     0.407531     0.771872    Uiso  ? C
   C927       1.0     0.217404     0.425395     0.825730    Uiso  ? C
   C928       1.0     0.258200     0.420125     0.793716    Uiso  ? C
   H607       1.0     0.207542     0.435651     0.845877    Uiso  ? H
   N32        1.0     0.246352     0.429629     0.819668    Uiso  ? N
   H608       1.0     0.282535     0.421013     0.790346    Uiso  ? H
   H609       1.0     0.649641     0.751482     0.874006    Uiso  ? H
   N33        1.0     0.675036     0.735120     0.839052    Uiso  ? N
   H610       1.0     0.695794     0.722226     0.802146    Uiso  ? H
   C929       1.0     0.649854     0.746742     0.851582    Uiso  ? C
   C930       1.0     0.675178     0.727698     0.810218    Uiso  ? C
   C931       1.0     0.626208     0.756636     0.833929    Uiso  ? C
   C932       1.0     0.650935     0.735750     0.790883    Uiso  ? C
   H611       1.0     0.607654     0.769386     0.843521    Uiso  ? H
   H612       1.0     0.652632     0.734674     0.767274    Uiso  ? H
   C933       1.0     0.628185     0.753352     0.802820    Uiso  ? C
   C934       1.0     0.610778     0.773717     0.782516    Uiso  ? C
   H613       1.0     0.602442     0.741734     0.747795    Uiso  ? H
   H614       1.0     0.615351     0.813681     0.811305    Uiso  ? H
   C935       1.0     0.600946     0.764584     0.754301    Uiso  ? C
   C936       1.0     0.607705     0.804042     0.790222    Uiso  ? C
   C937       1.0     0.586836     0.785452     0.735374    Uiso  ? C
   C938       1.0     0.596395     0.824720     0.769500    Uiso  ? C
   H615       1.0     0.577770     0.778998     0.715277    Uiso  ? H
   N34        1.0     0.585214     0.814415     0.743286    Uiso  ? N
   H616       1.0     0.594966     0.849655     0.773030    Uiso  ? H
   H617       1.0     0.173858     0.826659     0.638997    Uiso  ? H
   N35        1.0     0.211028     0.848814     0.658528    Uiso  ? N
   H618       1.0     0.251577     0.865513     0.674366    Uiso  ? H
   C939       1.0     0.197809     0.829452     0.639792    Uiso  ? C
   C940       1.0     0.241228     0.848466     0.660483    Uiso  ? C
   C941       1.0     0.214662     0.810281     0.621850    Uiso  ? C
   C942       1.0     0.259700     0.828414     0.644504    Uiso  ? C
   H619       1.0     0.205403     0.792772     0.608488    Uiso  ? H
   H620       1.0     0.283420     0.827032     0.648334    Uiso  ? H
   C943       1.0     0.245504     0.810040     0.623825    Uiso  ? C
   C944       1.0     0.261950     0.788477     0.605947    Uiso  ? C
   H621       1.0     0.244874     0.800616     0.563445    Uiso  ? H
   H622       1.0     0.282655     0.766401     0.645152    Uiso  ? H
   C945       1.0     0.262370     0.788980     0.574646    Uiso  ? C
   C946       1.0     0.283105     0.769408     0.621475    Uiso  ? C
   C947       1.0     0.285614     0.774094     0.559826    Uiso  ? C
   C948       1.0     0.306039     0.755231     0.604445    Uiso  ? C
   H623       1.0     0.283260     0.774085     0.535605    Uiso  ? H
   N36        1.0     0.307350     0.758027     0.573885    Uiso  ? N
   H624       1.0     0.324163     0.744091     0.617006    Uiso  ? H
   H625       1.0     0.341017     0.227548     0.126152    Uiso  ? H
   N37        1.0     0.318680     0.248969     0.160918    Uiso  ? N
   H626       1.0     0.300461     0.265708     0.200204    Uiso  ? H
   C949       1.0     0.341849     0.233137     0.148956    Uiso  ? C
   C950       1.0     0.320688     0.256697     0.189885    Uiso  ? C
   C951       1.0     0.364752     0.221659     0.166182    Uiso  ? C
   C952       1.0     0.343507     0.245947     0.208649    Uiso  ? C
   H627       1.0     0.379377     0.204618     0.156245    Uiso  ? H
   H628       1.0     0.341925     0.248902     0.232149    Uiso  ? H
   C953       1.0     0.364668     0.225844     0.197319    Uiso  ? C
   C954       1.0     0.382756     0.205547     0.214754    Uiso  ? C
   H629       1.0     0.346749     0.177653     0.226917    Uiso  ? H
   H630       1.0     0.425891     0.229012     0.205517    Uiso  ? H
   C955       1.0     0.369907     0.179525     0.228148    Uiso  ? C
   C956       1.0     0.414664     0.208809     0.215365    Uiso  ? C
   C957       1.0     0.386398     0.160277     0.243472    Uiso  ? C
   C958       1.0     0.429798     0.189686     0.233831    Uiso  ? C
   H631       1.0     0.373559     0.144375     0.254746    Uiso  ? H
   N38        1.0     0.416206     0.167207     0.247259    Uiso  ? N
   H632       1.0     0.453110     0.193665     0.239060    Uiso  ? H
   H633       1.0     0.816507     0.146935     0.384585    Uiso  ? H
   N39        1.0     0.819289     0.173805     0.345628    Uiso  ? N
   H634       1.0     0.815488     0.200235     0.308214    Uiso  ? H
   C959       1.0     0.810768     0.168085     0.374125    Uiso  ? C
   C960       1.0     0.807888     0.197275     0.330347    Uiso  ? C
   C961       1.0     0.792687     0.188986     0.388929    Uiso  ? C
   C962       1.0     0.789738     0.218410     0.343655    Uiso  ? C
   H635       1.0     0.785183     0.187168     0.410982    Uiso  ? H
   H636       1.0     0.779773     0.236399     0.332563    Uiso  ? H
   C963       1.0     0.782584     0.214500     0.373919    Uiso  ? C
   C964       1.0     0.760190     0.234888     0.387170    Uiso  ? C
   H637       1.0     0.784590     0.238955     0.428119    Uiso  ? H
   H638       1.0     0.730306     0.236576     0.349167    Uiso  ? H
   C965       1.0     0.764283     0.244021     0.416166    Uiso  ? C
   C966       1.0     0.734267     0.243768     0.371888    Uiso  ? C
   C967       1.0     0.740042     0.257230     0.431254    Uiso  ? C
   C968       1.0     0.711599     0.258131     0.387114    Uiso  ? C
   H639       1.0     0.741252     0.261982     0.455495    Uiso  ? H
   N40        1.0     0.713582     0.262542     0.417106    Uiso  ? N
   H640       1.0     0.690417     0.263407     0.376049    Uiso  ? H
   H641       1.0     0.765468     0.120506     0.667239    Uiso  ? H
   N41        1.0     0.751611     0.161032     0.683781    Uiso  ? N
   H642       1.0     0.729705     0.202409     0.692536    Uiso  ? H
   C969       1.0     0.763844     0.144498     0.662535    Uiso  ? C
   C970       1.0     0.742297     0.188829     0.676492    Uiso  ? C
   C971       1.0     0.771623     0.155805     0.636652    Uiso  ? C
   C972       1.0     0.747786     0.202443     0.649062    Uiso  ? C
   H643       1.0     0.785300     0.142235     0.621455    Uiso  ? H
   H644       1.0     0.740890     0.225250     0.645470    Uiso  ? H
   C973       1.0     0.766016     0.185789     0.629534    Uiso  ? C
   C974       1.0     0.782700     0.202028     0.605619    Uiso  ? C
   H645       1.0     0.743903     0.222805     0.584637    Uiso  ? H
   H646       1.0     0.825966     0.181761     0.617982    Uiso  ? H
   C975       1.0     0.767392     0.220465     0.585081    Uiso  ? C
   C976       1.0     0.812683     0.198697     0.603715    Uiso  ? C
   C977       1.0     0.784320     0.237302     0.565220    Uiso  ? C
   C978       1.0     0.828377     0.215313     0.582487    Uiso  ? C
   H647       1.0     0.772733     0.255230     0.553125    Uiso  ? H
   N42        1.0     0.814698     0.235653     0.566008    Uiso  ? N
   H648       1.0     0.850491     0.213705     0.582614    Uiso  ? H
   H649       1.0     0.200840     0.689664     0.803007    Uiso  ? H
   N43        1.0     0.172526     0.653610     0.810491    Uiso  ? N
   H650       1.0     0.150042     0.612743     0.819795    Uiso  ? H
   C979       1.0     0.198027     0.666211     0.800808    Uiso  ? C
   C980       1.0     0.169259     0.623506     0.809084    Uiso  ? C
   C981       1.0     0.221666     0.649145     0.788598    Uiso  ? C
   C982       1.0     0.191161     0.605136     0.796350    Uiso  ? C
   H651       1.0     0.242331     0.660712     0.782558    Uiso  ? H
   H652       1.0     0.185506     0.582759     0.794622    Uiso  ? H
   C983       1.0     0.217922     0.617327     0.786272    Uiso  ? C
   C984       1.0     0.237762     0.598582     0.768404    Uiso  ? C
   H653       1.0     0.258285     0.634379     0.745230    Uiso  ? H
   H654       1.0     0.229355     0.555181     0.789015    Uiso  ? H
   C985       1.0     0.255054     0.611331     0.745376    Uiso  ? C
   C986       1.0     0.238220     0.567136     0.769513    Uiso  ? C
   C987       1.0     0.264058     0.593711     0.721768    Uiso  ? C
   C988       1.0     0.249334     0.549674     0.746044    Uiso  ? C
   H655       1.0     0.274795     0.603745     0.702754    Uiso  ? H
   N44        1.0     0.259729     0.563506     0.721774    Uiso  ? N
   H656       1.0     0.245355     0.525890     0.747151    Uiso  ? H
   H657       1.0     0.281008     0.789914     0.305862    Uiso  ? H
   N45        1.0     0.262347     0.830946     0.322800    Uiso  ? N
   H658       1.0     0.246050     0.869641     0.345337    Uiso  ? H
   C989       1.0     0.269124     0.801972     0.323457    Uiso  ? C
   C990       1.0     0.247940     0.844769     0.345229    Uiso  ? C
   C991       1.0     0.254579     0.784236     0.343564    Uiso  ? C
   C992       1.0     0.233915     0.826890     0.365951    Uiso  ? C
   H659       1.0     0.256021     0.759605     0.339147    Uiso  ? H
   H660       1.0     0.220780     0.837327     0.382419    Uiso  ? H
   C993       1.0     0.235351     0.796749     0.364526    Uiso  ? C
   C994       1.0     0.214028     0.777103     0.378305    Uiso  ? C
   H661       1.0     0.199284     0.765205     0.336078    Uiso  ? H
   H662       1.0     0.223024     0.789511     0.424402    Uiso  ? H
   C995       1.0     0.195455     0.760543     0.358313    Uiso  ? C
   C996       1.0     0.208020     0.778414     0.408977    Uiso  ? C
   C997       1.0     0.170778     0.745983     0.370450    Uiso  ? C
   C998       1.0     0.182123     0.763936     0.419086    Uiso  ? C
   H663       1.0     0.156822     0.732834     0.356128    Uiso  ? H
   N46        1.0     0.166733     0.744426     0.400689    Uiso  ? N
   H664       1.0     0.176087     0.766861     0.442018    Uiso  ? H
   H665       1.0     0.833576     0.338334     0.230087    Uiso  ? H
   N47        1.0     0.815621     0.350318     0.190028    Uiso  ? N
   H666       1.0     0.799537     0.368417     0.148883    Uiso  ? H
   C999       1.0     0.815111     0.350626     0.219824    Uiso  ? C
   C1000      1.0     0.796461     0.366617     0.173510    Uiso  ? C
   C1001      1.0     0.794125     0.366211     0.235120    Uiso  ? C
   C1002      1.0     0.774867     0.383288     0.187600    Uiso  ? C
   H667       1.0     0.795634     0.366904     0.258748    Uiso  ? H
   H668       1.0     0.759786     0.399228     0.175314    Uiso  ? H
   C1003      1.0     0.773514     0.383274     0.219582    Uiso  ? C
   C1004      1.0     0.750906     0.401778     0.236688    Uiso  ? C
   H669       1.0     0.760826     0.444997     0.218606    Uiso  ? H
   H670       1.0     0.734888     0.363003     0.258258    Uiso  ? H
   C1005      1.0     0.750808     0.432746     0.236595    Uiso  ? C
   C1006      1.0     0.735114     0.386920     0.258870    Uiso  ? C
   C1007      1.0     0.738851     0.448254     0.260439    Uiso  ? C
   C1008      1.0     0.722380     0.403033     0.282204    Uiso  ? C
   H671       1.0     0.741090     0.471354     0.260876    Uiso  ? H
   N48        1.0     0.727233     0.433188     0.284401    Uiso  ? N
   H672       1.0     0.715786     0.390180     0.300778    Uiso  ? H
