
#======================================================================
# CRYSTAL DATA
#----------------------------------------------------------------------
data_VESTA_phase_1

_chemical_name_common                  ' Atoms. Timestep: 0'
_cell_length_a                         57.799965
_cell_length_b                         57.799965
_cell_length_c                         57.799965
_cell_angle_alpha                      90.000000
_cell_angle_beta                       90.000000
_cell_angle_gamma                      90.000000
_cell_volume                           1.000000
_space_group_name_H-M_alt              'P 1'
_space_group_IT_number                 1

loop_
_space_group_symop_operation_xyz
   'x, y, z'

loop_
   _atom_site_label
   _atom_site_occupancy
   _atom_site_fract_x
   _atom_site_fract_y
   _atom_site_fract_z
   _atom_site_adp_type
   _atom_site_U_iso_or_equiv
   _atom_site_type_symbol
   C1         1.0     0.874630     0.244544     0.174614    Uiso  ? C
   C2         1.0     0.860397     0.256525     0.157320    Uiso  ? C
   C3         1.0     0.858170     0.280798     0.158530    Uiso  ? C
   H1         1.0     0.870738     0.291333     0.169609    Uiso  ? H
   C4         1.0     0.842539     0.291926     0.145221    Uiso  ? C
   H2         1.0     0.840814     0.309620     0.145551    Uiso  ? H
   C5         1.0     0.828625     0.279458     0.129904    Uiso  ? C
   H3         1.0     0.816675     0.287092     0.118768    Uiso  ? H
   C6         1.0     0.830535     0.254836     0.128224    Uiso  ? C
   C7         1.0     0.846089     0.243089     0.142624    Uiso  ? C
   H4         1.0     0.846404     0.223728     0.143090    Uiso  ? H
   C8         1.0     0.816696     0.241526     0.111275    Uiso  ? C
   C9         1.0     0.854963     0.219081     0.228282    Uiso  ? C
   C10        1.0     0.830281     0.213285     0.232609    Uiso  ? C
   C11        1.0     0.812587     0.229941     0.230975    Uiso  ? C
   H5         1.0     0.817068     0.246750     0.226660    Uiso  ? H
   C12        1.0     0.789435     0.223866     0.233093    Uiso  ? C
   H6         1.0     0.776928     0.236949     0.231883    Uiso  ? H
   C13        1.0     0.783187     0.200591     0.232113    Uiso  ? C
   H7         1.0     0.764990     0.196714     0.230844    Uiso  ? H
   C14        1.0     0.800983     0.184040     0.230405    Uiso  ? C
   C15        1.0     0.824383     0.190234     0.232392    Uiso  ? C
   H8         1.0     0.838186     0.177392     0.229075    Uiso  ? H
   C16        1.0     0.794589     0.159024     0.227227    Uiso  ? C
   C17        1.0     0.133033     0.205939     0.226456    Uiso  ? C
   C18        1.0     0.153119     0.195783     0.237764    Uiso  ? C
   C19        1.0     0.159193     0.202215     0.260674    Uiso  ? C
   H9         1.0     0.149497     0.216777     0.268995    Uiso  ? H
   C20        1.0     0.176816     0.190510     0.272573    Uiso  ? C
   H10        1.0     0.179777     0.194084     0.290920    Uiso  ? H
   C21        1.0     0.189530     0.173327     0.261715    Uiso  ? C
   H11        1.0     0.203473     0.165563     0.271584    Uiso  ? H
   C22        1.0     0.183358     0.164672     0.239923    Uiso  ? C
   C23        1.0     0.165651     0.176604     0.227345    Uiso  ? C
   H12        1.0     0.163929     0.172600     0.209321    Uiso  ? H
   C24        1.0     0.196879     0.145515     0.228922    Uiso  ? C
   C25        1.0     0.131100     0.246460     0.187044    Uiso  ? C
   C26        1.0     0.148429     0.258816     0.172971    Uiso  ? C
   C27        1.0     0.152636     0.282775     0.175823    Uiso  ? C
   H13        1.0     0.142837     0.293125     0.188346    Uiso  ? H
   C28        1.0     0.170148     0.293056     0.163188    Uiso  ? C
   H14        1.0     0.175461     0.310397     0.169526    Uiso  ? H
   C29        1.0     0.182341     0.280673     0.146313    Uiso  ? C
   H15        1.0     0.195710     0.289869     0.136228    Uiso  ? H
   C30        1.0     0.176589     0.257527     0.141736    Uiso  ? C
   C31        1.0     0.161134     0.245989     0.156082    Uiso  ? C
   H16        1.0     0.157810     0.228190     0.153484    Uiso  ? H
   C32        1.0     0.189270     0.244376     0.123129    Uiso  ? C
   C33        1.0     0.765675     0.187171     0.860533    Uiso  ? C
   C34        1.0     0.752383     0.173186     0.844237    Uiso  ? C
   C35        1.0     0.728502     0.175830     0.842270    Uiso  ? C
   H17        1.0     0.720729     0.191224     0.850287    Uiso  ? H
   C36        1.0     0.715360     0.160419     0.828503    Uiso  ? C
   H18        1.0     0.697372     0.161146     0.828756    Uiso  ? H
   C37        1.0     0.726516     0.141773     0.817531    Uiso  ? C
   H19        1.0     0.717326     0.128314     0.809185    Uiso  ? H
   C38        1.0     0.750495     0.138814     0.819261    Uiso  ? C
   C39        1.0     0.763333     0.153738     0.832998    Uiso  ? C
   H20        1.0     0.781544     0.149351     0.835986    Uiso  ? H
   C40        1.0     0.761203     0.119608     0.807002    Uiso  ? C
   C41        1.0     0.762096     0.187837     0.115154    Uiso  ? C
   C42        1.0     0.748608     0.173559     0.132714    Uiso  ? C
   C43        1.0     0.724905     0.176113     0.134946    Uiso  ? C
   H21        1.0     0.716308     0.187741     0.124450    Uiso  ? H
   C44        1.0     0.712433     0.165121     0.152145    Uiso  ? C
   H22        1.0     0.694203     0.169748     0.155028    Uiso  ? H
   C45        1.0     0.724355     0.155031     0.170215    Uiso  ? C
   H23        1.0     0.715632     0.148629     0.185425    Uiso  ? H
   C46        1.0     0.748443     0.150183     0.167764    Uiso  ? C
   C47        1.0     0.760632     0.161846     0.150621    Uiso  ? C
   H24        1.0     0.779186     0.160378     0.150162    Uiso  ? H
   C48        1.0     0.761589     0.137705     0.185584    Uiso  ? C
   C49        1.0     0.794812     0.227356     0.845149    Uiso  ? C
   C50        1.0     0.802897     0.233248     0.821623    Uiso  ? C
   C51        1.0     0.791674     0.250743     0.808344    Uiso  ? C
   H25        1.0     0.774869     0.259295     0.813868    Uiso  ? H
   C52        1.0     0.800189     0.257693     0.787045    Uiso  ? C
   H26        1.0     0.790132     0.268792     0.775623    Uiso  ? H
   C53        1.0     0.820258     0.247003     0.778502    Uiso  ? C
   H27        1.0     0.824821     0.249940     0.760988    Uiso  ? H
   C54        1.0     0.833082     0.231062     0.792761    Uiso  ? C
   C55        1.0     0.824210     0.224691     0.814583    Uiso  ? C
   H28        1.0     0.832400     0.211066     0.823868    Uiso  ? H
   C56        1.0     0.855407     0.220975     0.785650    Uiso  ? C
   C57        1.0     0.764068     0.874705     0.200418    Uiso  ? C
   C58        1.0     0.753724     0.853120     0.191148    Uiso  ? C
   C59        1.0     0.731357     0.847596     0.198465    Uiso  ? C
   H29        1.0     0.722056     0.858084     0.211209    Uiso  ? H
   C60        1.0     0.720174     0.828210     0.189316    Uiso  ? C
   H30        1.0     0.702189     0.824964     0.194798    Uiso  ? H
   C61        1.0     0.731760     0.815387     0.171927    Uiso  ? C
   H31        1.0     0.722904     0.799990     0.164407    Uiso  ? H
   C62        1.0     0.753462     0.821447     0.164028    Uiso  ? C
   C63        1.0     0.765224     0.841172     0.173978    Uiso  ? C
   H32        1.0     0.781698     0.846291     0.167505    Uiso  ? H
   C64        1.0     0.765307     0.808143     0.145147    Uiso  ? C
   C65        1.0     0.809087     0.885651     0.239347    Uiso  ? C
   C66        1.0     0.822568     0.869663     0.254845    Uiso  ? C
   C67        1.0     0.823056     0.872381     0.279114    Uiso  ? C
   H33        1.0     0.811142     0.884478     0.287399    Uiso  ? H
   C68        1.0     0.840405     0.860369     0.290560    Uiso  ? C
   H34        1.0     0.842788     0.863890     0.308501    Uiso  ? H
   C69        1.0     0.854091     0.844125     0.278872    Uiso  ? C
   H35        1.0     0.865938     0.833842     0.289147    Uiso  ? H
   C70        1.0     0.852220     0.839262     0.255766    Uiso  ? C
   C71        1.0     0.836108     0.851684     0.243264    Uiso  ? C
   H36        1.0     0.835905     0.850049     0.225176    Uiso  ? H
   C72        1.0     0.870322     0.824582     0.244280    Uiso  ? C
   C73        1.0     0.862783     0.177445     0.754187    Uiso  ? C
   C74        1.0     0.844750     0.163338     0.743498    Uiso  ? C
   C75        1.0     0.842719     0.160772     0.719225    Uiso  ? C
   H37        1.0     0.853032     0.170879     0.707088    Uiso  ? H
   C76        1.0     0.827075     0.145364     0.709815    Uiso  ? C
   H38        1.0     0.824189     0.145272     0.691368    Uiso  ? H
   C77        1.0     0.815072     0.130171     0.724098    Uiso  ? C
   H39        1.0     0.805350     0.118000     0.714465    Uiso  ? H
   C78        1.0     0.815158     0.133201     0.748950    Uiso  ? C
   C79        1.0     0.830558     0.150080     0.757614    Uiso  ? C
   H40        1.0     0.832300     0.150094     0.776028    Uiso  ? H
   C80        1.0     0.802502     0.117444     0.763749    Uiso  ? C
   C81        1.0     0.134003     0.225875     0.791048    Uiso  ? C
   C82        1.0     0.155002     0.238011     0.798974    Uiso  ? C
   C83        1.0     0.168288     0.250680     0.783334    Uiso  ? C
   H41        1.0     0.162142     0.253540     0.766294    Uiso  ? H
   C84        1.0     0.190880     0.257298     0.789263    Uiso  ? C
   H42        1.0     0.202266     0.265718     0.776647    Uiso  ? H
   C85        1.0     0.199376     0.252969     0.810939    Uiso  ? C
   H43        1.0     0.216819     0.256563     0.813171    Uiso  ? H
   C86        1.0     0.185857     0.242290     0.827472    Uiso  ? C
   C87        1.0     0.163586     0.234427     0.821439    Uiso  ? C
   H44        1.0     0.151131     0.226686     0.834536    Uiso  ? H
   C88        1.0     0.194502     0.236572     0.851163    Uiso  ? C
   C89        1.0     0.230987     0.206311     0.126703    Uiso  ? C
   C90        1.0     0.243058     0.196556     0.147601    Uiso  ? C
   C91        1.0     0.263018     0.206991     0.155631    Uiso  ? C
   H45        1.0     0.270636     0.221611     0.145937    Uiso  ? H
   C92        1.0     0.275742     0.198682     0.173984    Uiso  ? C
   H46        1.0     0.290177     0.206760     0.180926    Uiso  ? H
   C93        1.0     0.265599     0.181186     0.187904    Uiso  ? C
   H47        1.0     0.273260     0.177061     0.205547    Uiso  ? H
   C94        1.0     0.244799     0.171242     0.179885    Uiso  ? C
   C95        1.0     0.234785     0.178209     0.160106    Uiso  ? C
   H48        1.0     0.218051     0.169443     0.154262    Uiso  ? H
   C96        1.0     0.235906     0.150504     0.192068    Uiso  ? C
   O1         1.0     0.884639     0.225633     0.168366    Uiso  ? O
   O2         1.0     0.874994     0.252323     0.195352    Uiso  ? O
   O3         1.0     0.869694     0.202447     0.222461    Uiso  ? O
   O4         1.0     0.860146     0.240024     0.225206    Uiso  ? O
   O5         1.0     0.129278     0.202806     0.205029    Uiso  ? O
   O6         1.0     0.117748     0.215441     0.238465    Uiso  ? O
   O7         1.0     0.124466     0.225771     0.183273    Uiso  ? O
   O8         1.0     0.119808     0.257221     0.201838    Uiso  ? O
   O9         1.0     0.787725     0.185287     0.860882    Uiso  ? O
   O10        1.0     0.755549     0.200809     0.873804    Uiso  ? O
   O11        1.0     0.783331     0.184604     0.113720    Uiso  ? O
   O12        1.0     0.752629     0.203490     0.102307    Uiso  ? O
   O13        1.0     0.825326     0.223366     0.102095    Uiso  ? O
   O14        1.0     0.795897     0.245291     0.110542    Uiso  ? O
   O15        1.0     0.805376     0.210335     0.855317    Uiso  ? O
   O16        1.0     0.779443     0.238776     0.854917    Uiso  ? O
   O17        1.0     0.786400     0.876990     0.201568    Uiso  ? O
   O18        1.0     0.751203     0.890503     0.209425    Uiso  ? O
   O19        1.0     0.805577     0.880913     0.218609    Uiso  ? O
   O20        1.0     0.797566     0.106148     0.247170    Uiso  ? O
   O21        1.0     0.810383     0.144733     0.220623    Uiso  ? O
   O22        1.0     0.772744     0.152110     0.228205    Uiso  ? O
   O23        1.0     0.779850     0.127546     0.179342    Uiso  ? O
   O24        1.0     0.755227     0.137690     0.206764    Uiso  ? O
   O25        1.0     0.865459     0.177849     0.776626    Uiso  ? O
   O26        1.0     0.875732     0.188749     0.740412    Uiso  ? O
   O27        1.0     0.861284     0.201655     0.794168    Uiso  ? O
   O28        1.0     0.868120     0.230692     0.770323    Uiso  ? O
   O29        1.0     0.118670     0.218291     0.805462    Uiso  ? O
   O30        1.0     0.131546     0.222699     0.768669    Uiso  ? O
   O31        1.0     0.121110     0.172505     0.772282    Uiso  ? O
   O32        1.0     0.108278     0.184738     0.737185    Uiso  ? O
   O33        1.0     0.182017     0.227551     0.866268    Uiso  ? O
   O34        1.0     0.215692     0.238856     0.855261    Uiso  ? O
   O35        1.0     0.189287     0.222043     0.123448    Uiso  ? O
   O36        1.0     0.201506     0.254563     0.108336    Uiso  ? O
   O37        1.0     0.209700     0.203126     0.124012    Uiso  ? O
   O38        1.0     0.243000     0.216706     0.112026    Uiso  ? O
   O39        1.0     0.220616     0.187474     0.874436    Uiso  ? O
   O40        1.0     0.235919     0.220027     0.861533    Uiso  ? O
   O41        1.0     0.804014     0.859639     0.771114    Uiso  ? O
   O42        1.0     0.769898     0.845170     0.771599    Uiso  ? O
   O43        1.0     0.781246     0.862838     0.822228    Uiso  ? O
   O44        1.0     0.746492     0.871618     0.806401    Uiso  ? O
   O45        1.0     0.783423     0.117857     0.804894    Uiso  ? O
   O46        1.0     0.747968     0.104522     0.797654    Uiso  ? O
   O47        1.0     0.804488     0.117089     0.785815    Uiso  ? O
   O48        1.0     0.786639     0.105480     0.754894    Uiso  ? O
   O49        1.0     0.888065     0.170366     0.180736    Uiso  ? O
   O50        1.0     0.833698     0.169592     0.897749    Uiso  ? O
   O51        1.0     0.836352     0.116193     0.187555    Uiso  ? O
   O52        1.0     0.103228     0.172034     0.827254    Uiso  ? O
   O53        1.0     0.173744     0.175815     0.882817    Uiso  ? O
   O54        1.0     0.832542     0.875854     0.818924    Uiso  ? O
   Zn1        1.0     0.892831     0.203379     0.194920    Uiso  ? Zn
   Zn2        1.0     0.894264     0.244041     0.226222    Uiso  ? Zn
   Zn3        1.0     0.807649     0.194797     0.890630    Uiso  ? Zn
   Zn4        1.0     0.768758     0.231936     0.889310    Uiso  ? Zn
   Zn5        1.0     0.803497     0.115357     0.201625    Uiso  ? Zn
   Zn6        1.0     0.765501     0.117519     0.233853    Uiso  ? Zn
   Zn7        1.0     0.895186     0.190298     0.795908    Uiso  ? Zn
   Zn8        1.0     0.896428     0.217253     0.751682    Uiso  ? Zn
   Zn9        1.0     0.194119     0.204589     0.891713    Uiso  ? Zn
   Zn10       1.0     0.228636     0.242139     0.890109    Uiso  ? Zn
   Zn11       1.0     0.800994     0.880963     0.800446    Uiso  ? Zn
   Zn12       1.0     0.760819     0.879700     0.770862    Uiso  ? Zn
   C97        1.0     0.131014     0.751463     0.814035    Uiso  ? C
   C98        1.0     0.147468     0.740250     0.829737    Uiso  ? C
   C99        1.0     0.148470     0.716547     0.831311    Uiso  ? C
   H49        1.0     0.138635     0.705203     0.820022    Uiso  ? H
   C100       1.0     0.164036     0.706537     0.847464    Uiso  ? C
   H50        1.0     0.166297     0.687812     0.848462    Uiso  ? H
   C101       1.0     0.179600     0.720080     0.859479    Uiso  ? C
   H51        1.0     0.189157     0.711243     0.871244    Uiso  ? H
   C102       1.0     0.178270     0.744359     0.858128    Uiso  ? C
   C103       1.0     0.163927     0.754080     0.842171    Uiso  ? C
   H52        1.0     0.163082     0.772302     0.838758    Uiso  ? H
   C104       1.0     0.192714     0.759385     0.874178    Uiso  ? C
   C105       1.0     0.130495     0.797527     0.773365    Uiso  ? C
   C106       1.0     0.148303     0.809324     0.759791    Uiso  ? C
   C107       1.0     0.149102     0.805598     0.735666    Uiso  ? C
   H53        1.0     0.137101     0.793120     0.726953    Uiso  ? H
   C108       1.0     0.164384     0.817264     0.722778    Uiso  ? C
   H54        1.0     0.167803     0.812406     0.703685    Uiso  ? H
   C109       1.0     0.179195     0.833428     0.734003    Uiso  ? C
   H55        1.0     0.191594     0.842959     0.723782    Uiso  ? H
   C110       1.0     0.178307     0.838129     0.758422    Uiso  ? C
   C111       1.0     0.163492     0.824788     0.771282    Uiso  ? C
   H56        1.0     0.162585     0.828862     0.789666    Uiso  ? H
   C112       1.0     0.192135     0.856857     0.769592    Uiso  ? C
   C113       1.0     0.854272     0.782708     0.773806    Uiso  ? C
   C114       1.0     0.830099     0.789693     0.766752    Uiso  ? C
   C115       1.0     0.815262     0.773855     0.756047    Uiso  ? C
   H57        1.0     0.819293     0.757376     0.751773    Uiso  ? H
   C116       1.0     0.793962     0.780826     0.747967    Uiso  ? C
   H58        1.0     0.780575     0.768492     0.741832    Uiso  ? H
   C117       1.0     0.787296     0.804691     0.749308    Uiso  ? C
   H59        1.0     0.769264     0.808527     0.743799    Uiso  ? H
   C118       1.0     0.800736     0.819833     0.761128    Uiso  ? C
   C119       1.0     0.822899     0.812700     0.767408    Uiso  ? C
   H60        1.0     0.834745     0.825615     0.776145    Uiso  ? H
   C120       1.0     0.790904     0.842072     0.768951    Uiso  ? C
   C121       1.0     0.865755     0.753802     0.820356    Uiso  ? C
   C122       1.0     0.848786     0.740741     0.834714    Uiso  ? C
   C123       1.0     0.841381     0.719099     0.827415    Uiso  ? C
   H61        1.0     0.849841     0.710508     0.813849    Uiso  ? H
   C124       1.0     0.822438     0.708175     0.838285    Uiso  ? C
   H62        1.0     0.816428     0.691329     0.832242    Uiso  ? H
   C125       1.0     0.812142     0.719278     0.858033    Uiso  ? C
   H63        1.0     0.797956     0.711032     0.867379    Uiso  ? H
   C126       1.0     0.819874     0.740985     0.866083    Uiso  ? C
   C127       1.0     0.838155     0.751013     0.854446    Uiso  ? C
   H64        1.0     0.844869     0.767340     0.859277    Uiso  ? H
   C128       1.0     0.808812     0.753767     0.884950    Uiso  ? C
   C129       1.0     0.239703     0.804504     0.136694    Uiso  ? C
   C130       1.0     0.251503     0.817475     0.154760    Uiso  ? C
   C131       1.0     0.271639     0.809023     0.165835    Uiso  ? C
   H65        1.0     0.280065     0.792980     0.158354    Uiso  ? H
   C132       1.0     0.281473     0.820809     0.184382    Uiso  ? C
   H66        1.0     0.295308     0.809599     0.192829    Uiso  ? H
   C133       1.0     0.271176     0.841850     0.192516    Uiso  ? C
   H67        1.0     0.278836     0.849241     0.208009    Uiso  ? H
   C134       1.0     0.252520     0.852295     0.180181    Uiso  ? C
   C135       1.0     0.242734     0.839731     0.161791    Uiso  ? C
   H68        1.0     0.227694     0.846906     0.154357    Uiso  ? H
   C136       1.0     0.241264     0.874534     0.188973    Uiso  ? C
   C137       1.0     0.235999     0.797902     0.869611    Uiso  ? C
   C138       1.0     0.247578     0.809558     0.848573    Uiso  ? C
   C139       1.0     0.271232     0.809111     0.846225    Uiso  ? C
   H69        1.0     0.282690     0.800283     0.858424    Uiso  ? H
   C140       1.0     0.282188     0.819608     0.827235    Uiso  ? C
   H70        1.0     0.300028     0.818438     0.823368    Uiso  ? H
   C141       1.0     0.269545     0.835463     0.812683    Uiso  ? C
   H71        1.0     0.278698     0.844676     0.799673    Uiso  ? H
   C142       1.0     0.245913     0.838541     0.817389    Uiso  ? C
   C143       1.0     0.234583     0.825800     0.834725    Uiso  ? C
   H72        1.0     0.216584     0.827814     0.837462    Uiso  ? H
   C144       1.0     0.233309     0.858163     0.805467    Uiso  ? C
   C145       1.0     0.197510     0.770501     0.146259    Uiso  ? C
   C146       1.0     0.189567     0.762516     0.169152    Uiso  ? C
   C147       1.0     0.202294     0.747805     0.182026    Uiso  ? C
   H73        1.0     0.218187     0.740532     0.175522    Uiso  ? H
   C148       1.0     0.193057     0.739887     0.204251    Uiso  ? C
   H74        1.0     0.203680     0.728122     0.213723    Uiso  ? H
   C149       1.0     0.171519     0.748672     0.213755    Uiso  ? C
   H75        1.0     0.164880     0.742099     0.229742    Uiso  ? H
   C150       1.0     0.159705     0.764970     0.200872    Uiso  ? C
   C151       1.0     0.167798     0.770800     0.178487    Uiso  ? C
   H76        1.0     0.158261     0.783342     0.167415    Uiso  ? H
   C152       1.0     0.139591     0.776714     0.210425    Uiso  ? C
   C153       1.0     0.235164     0.133421     0.802673    Uiso  ? C
   C154       1.0     0.245446     0.154513     0.812185    Uiso  ? C
   C155       1.0     0.264086     0.165557     0.799644    Uiso  ? C
   H77        1.0     0.272668     0.158810     0.784699    Uiso  ? H
   C156       1.0     0.271849     0.186800     0.807950    Uiso  ? C
   H78        1.0     0.284905     0.197667     0.800571    Uiso  ? H
   C157       1.0     0.262402     0.196672     0.827905    Uiso  ? C
   H79        1.0     0.270595     0.213216     0.834225    Uiso  ? H
   C158       1.0     0.245127     0.185789     0.840299    Uiso  ? C
   C159       1.0     0.237454     0.163980     0.833061    Uiso  ? C
   H80        1.0     0.223782     0.156526     0.843149    Uiso  ? H
   C160       1.0     0.234767     0.198250     0.860277    Uiso  ? C
   C161       1.0     0.183743     0.114536     0.755289    Uiso  ? C
   C162       1.0     0.164995     0.123031     0.740117    Uiso  ? C
   C163       1.0     0.161264     0.116204     0.717249    Uiso  ? C
   H81        1.0     0.170064     0.897072     0.709529    Uiso  ? H
   C164       1.0     0.144049     0.127287     0.705396    Uiso  ? C
   H82        1.0     0.140792     0.121885     0.687989    Uiso  ? H
   C165       1.0     0.131272     0.146176     0.714761    Uiso  ? C
   H83        1.0     0.118501     0.155660     0.704104    Uiso  ? H
   C166       1.0     0.134811     0.152649     0.738239    Uiso  ? C
   C167       1.0     0.152340     0.141166     0.750050    Uiso  ? C
   H84        1.0     0.156850     0.145924     0.768993    Uiso  ? H
   C168       1.0     0.120514     0.170731     0.749465    Uiso  ? C
   C169       1.0     0.128582     0.832478     0.250425    Uiso  ? C
   C170       1.0     0.145913     0.849028     0.260703    Uiso  ? C
   C171       1.0     0.150194     0.849011     0.283400    Uiso  ? C
   H85        1.0     0.142186     0.836409     0.294436    Uiso  ? H
   C172       1.0     0.168450     0.861357     0.293138    Uiso  ? C
   H86        1.0     0.171698     0.858729     0.312057    Uiso  ? H
   C173       1.0     0.182850     0.875054     0.279302    Uiso  ? C
   H87        1.0     0.196960     0.885897     0.286764    Uiso  ? H
   C174       1.0     0.177126     0.877397     0.255998    Uiso  ? C
   C175       1.0     0.158128     0.864203     0.246673    Uiso  ? C
   H88        1.0     0.155258     0.864241     0.228760    Uiso  ? H
   C176       1.0     0.193283     0.887797     0.240148    Uiso  ? C
   C177       1.0     0.863251     0.777238     0.217336    Uiso  ? C
   C178       1.0     0.843194     0.765143     0.208323    Uiso  ? C
   C179       1.0     0.837651     0.743805     0.218291    Uiso  ? C
   H89        1.0     0.845174     0.737445     0.234063    Uiso  ? H
   C180       1.0     0.820283     0.730286     0.208443    Uiso  ? C
   H90        1.0     0.818248     0.713124     0.215011    Uiso  ? H
   C181       1.0     0.810094     0.736899     0.186527    Uiso  ? C
   H91        1.0     0.800144     0.725717     0.174750    Uiso  ? H
   C182       1.0     0.814568     0.759521     0.179123    Uiso  ? C
   C183       1.0     0.831573     0.773310     0.189285    Uiso  ? C
   H92        1.0     0.836540     0.789409     0.181026    Uiso  ? H
   C184       1.0     0.803264     0.769426     0.157893    Uiso  ? C
   C185       1.0     0.763727     0.812279     0.891303    Uiso  ? C
   C186       1.0     0.749957     0.826918     0.876581    Uiso  ? C
   C187       1.0     0.725080     0.827542     0.878035    Uiso  ? C
   H93        1.0     0.716039     0.819797     0.892728    Uiso  ? H
   C188       1.0     0.711174     0.842343     0.864898    Uiso  ? C
   H94        1.0     0.693122     0.844866     0.867881    Uiso  ? H
   C189       1.0     0.722926     0.854051     0.845872    Uiso  ? C
   H95        1.0     0.711267     0.863079     0.834887    Uiso  ? H
   C190       1.0     0.746456     0.850504     0.841678    Uiso  ? C
   C191       1.0     0.760151     0.837753     0.857650    Uiso  ? C
   H96        1.0     0.777355     0.830791     0.854069    Uiso  ? H
   C192       1.0     0.759411     0.862598     0.822439    Uiso  ? C
   O55        1.0     0.128234     0.773025     0.813962    Uiso  ? O
   O56        1.0     0.118226     0.738708     0.800993    Uiso  ? O
   O57        1.0     0.129965     0.798122     0.795609    Uiso  ? O
   O58        1.0     0.115542     0.785489     0.762291    Uiso  ? O
   O59        1.0     0.869779     0.797527     0.779571    Uiso  ? O
   O60        1.0     0.858596     0.760750     0.776673    Uiso  ? O
   O61        1.0     0.876954     0.771144     0.828291    Uiso  ? O
   O62        1.0     0.868177     0.748001     0.799133    Uiso  ? O
   O63        1.0     0.225972     0.815094     0.122844    Uiso  ? O
   O64        1.0     0.241101     0.782039     0.137049    Uiso  ? O
   O65        1.0     0.214577     0.800752     0.872571    Uiso  ? O
   O66        1.0     0.248186     0.787195     0.884843    Uiso  ? O
   O67        1.0     0.192051     0.781395     0.872811    Uiso  ? O
   O68        1.0     0.202458     0.750231     0.891303    Uiso  ? O
   O69        1.0     0.183678     0.779226     0.131633    Uiso  ? O
   O70        1.0     0.218672     0.767502     0.140483    Uiso  ? O
   O71        1.0     0.221225     0.121398     0.814182    Uiso  ? O
   O72        1.0     0.239037     0.128535     0.780962    Uiso  ? O
   O73        1.0     0.181375     0.117785     0.777079    Uiso  ? O
   O74        1.0     0.200487     0.101920     0.748304    Uiso  ? O
   O75        1.0     0.190187     0.861181     0.791642    Uiso  ? O
   O76        1.0     0.204254     0.870753     0.756521    Uiso  ? O
   O77        1.0     0.211946     0.861757     0.810131    Uiso  ? O
   O78        1.0     0.244539     0.869897     0.789673    Uiso  ? O
   O79        1.0     0.125117     0.831738     0.228935    Uiso  ? O
   O80        1.0     0.117358     0.817857     0.263385    Uiso  ? O
   O81        1.0     0.123944     0.786139     0.197622    Uiso  ? O
   O82        1.0     0.137999     0.778912     0.232286    Uiso  ? O
   O83        1.0     0.868897     0.796816     0.208504    Uiso  ? O
   O84        1.0     0.875921     0.769196     0.233012    Uiso  ? O
   O85        1.0     0.869348     0.821240     0.221933    Uiso  ? O
   O86        1.0     0.885004     0.814686     0.256979    Uiso  ? O
   O87        1.0     0.809488     0.789041     0.149454    Uiso  ? O
   O88        1.0     0.790542     0.756577     0.145196    Uiso  ? O
   O89        1.0     0.821066     0.766105     0.898280    Uiso  ? O
   O90        1.0     0.786476     0.755241     0.887450    Uiso  ? O
   O91        1.0     0.784969     0.813565     0.894055    Uiso  ? O
   O92        1.0     0.753490     0.797975     0.102974    Uiso  ? O
   O93        1.0     0.787431     0.807421     0.144353    Uiso  ? O
   O94        1.0     0.752957     0.795279     0.131495    Uiso  ? O
   O95        1.0     0.194728     0.140014     0.207164    Uiso  ? O
   O96        1.0     0.209712     0.133133     0.241509    Uiso  ? O
   O97        1.0     0.217603     0.140980     0.186152    Uiso  ? O
   O98        1.0     0.247802     0.142418     0.208346    Uiso  ? O
   O99        1.0     0.228398     0.886468     0.176005    Uiso  ? O
   O100       1.0     0.245065     0.879698     0.210432    Uiso  ? O
   O101       1.0     0.191525     0.883323     0.218796    Uiso  ? O
   O102       1.0     0.209528     0.105539     0.247132    Uiso  ? O
   O103       1.0     0.887262     0.825902     0.820526    Uiso  ? O
   O104       1.0     0.174104     0.826236     0.108143    Uiso  ? O
   O105       1.0     0.179630     0.104824     0.834751    Uiso  ? O
   O106       1.0     0.109376     0.829143     0.176068    Uiso  ? O
   O107       1.0     0.839428     0.818518     0.112627    Uiso  ? O
   O108       1.0     0.173819     0.895558     0.169743    Uiso  ? O
   Zn13       1.0     0.893670     0.793392     0.807069    Uiso  ? Zn
   Zn14       1.0     0.893871     0.754461     0.775083    Uiso  ? Zn
   Zn15       1.0     0.197123     0.800170     0.103907    Uiso  ? Zn
   Zn16       1.0     0.231147     0.763935     0.106695    Uiso  ? Zn
   Zn17       1.0     0.195729     0.895345     0.803282    Uiso  ? Zn
   Zn18       1.0     0.232453     0.893094     0.766192    Uiso  ? Zn
   Zn19       1.0     0.104749     0.814009     0.207259    Uiso  ? Zn
   Zn20       1.0     0.108282     0.783994     0.249000    Uiso  ? Zn
   Zn21       1.0     0.808750     0.796987     0.115073    Uiso  ? Zn
   Zn22       1.0     0.768575     0.765272     0.116483    Uiso  ? Zn
   Zn23       1.0     0.202662     0.108200     0.191374    Uiso  ? Zn
   Zn24       1.0     0.239954     0.114068     0.228759    Uiso  ? Zn
   H97        1.0     0.169099     0.830241     0.893962    Uiso  ? H
   H98        1.0     0.165704     0.827208     0.122801    Uiso  ? H
   H99        1.0     0.847158     0.175232     0.107066    Uiso  ? H
   H100       1.0     0.833443     0.153850     0.890751    Uiso  ? H
   H101       1.0     0.837745     0.889264     0.827195    Uiso  ? H
   H102       1.0     0.838942     0.860044     0.818315    Uiso  ? H
   H103       1.0     0.892585     0.177070     0.841727    Uiso  ? H
   H104       1.0     0.110744     0.157680     0.824287    Uiso  ? H
   H105       1.0     0.174044     0.102457     0.153293    Uiso  ? H
   H106       1.0     0.160394     0.895340     0.179126    Uiso  ? H
   H107       1.0     0.887008     0.157553     0.190854    Uiso  ? H
   H108       1.0     0.893843     0.167037     0.165589    Uiso  ? H
   H109       1.0     0.179342     0.159963     0.885540    Uiso  ? H
   H110       1.0     0.157782     0.179016     0.879732    Uiso  ? H
   H111       1.0     0.116046     0.821352     0.162547    Uiso  ? H
   H112       1.0     0.105790     0.845663     0.174997    Uiso  ? H
   H113       1.0     0.847241     0.123413     0.197991    Uiso  ? H
   H114       1.0     0.840172     0.897189     0.182671    Uiso  ? H
   H115       1.0     0.847298     0.821165     0.126649    Uiso  ? H
   H116       1.0     0.842994     0.826108     0.898654    Uiso  ? H
   H117       1.0     0.174884     0.888248     0.845836    Uiso  ? H
   H118       1.0     0.177567     0.120643     0.839161    Uiso  ? H
   H119       1.0     0.893760     0.833086     0.833664    Uiso  ? H
   H120       1.0     0.873800     0.834366     0.814256    Uiso  ? H
   C193       1.0     0.858101     0.369949     0.413787    Uiso  ? C
   C194       1.0     0.841136     0.358966     0.430252    Uiso  ? C
   C195       1.0     0.836871     0.334871     0.428747    Uiso  ? C
   H121       1.0     0.846445     0.323315     0.417332    Uiso  ? H
   C196       1.0     0.820028     0.324217     0.441321    Uiso  ? C
   H122       1.0     0.818495     0.305955     0.437150    Uiso  ? H
   C197       1.0     0.805378     0.337198     0.455735    Uiso  ? C
   H123       1.0     0.789933     0.329447     0.463543    Uiso  ? H
   C198       1.0     0.809442     0.361250     0.458027    Uiso  ? C
   C199       1.0     0.826354     0.372227     0.444150    Uiso  ? C
   H124       1.0     0.830101     0.390776     0.446707    Uiso  ? H
   C200       1.0     0.794080     0.376234     0.473417    Uiso  ? C
   C201       1.0     0.847492     0.413210     0.357270    Uiso  ? C
   C202       1.0     0.830706     0.427132     0.344280    Uiso  ? C
   C203       1.0     0.819568     0.419911     0.323880    Uiso  ? C
   H125       1.0     0.823890     0.403360     0.316263    Uiso  ? H
   C204       1.0     0.803817     0.435803     0.312633    Uiso  ? C
   H126       1.0     0.796407     0.430274     0.296399    Uiso  ? H
   C205       1.0     0.795905     0.454949     0.323813    Uiso  ? C
   H127       1.0     0.781975     0.464219     0.315593    Uiso  ? H
   C206       1.0     0.803783     0.460969     0.345250    Uiso  ? C
   C207       1.0     0.823042     0.447435     0.354936    Uiso  ? C
   H128       1.0     0.830225     0.453205     0.371276    Uiso  ? H
   C208       1.0     0.794892     0.481054     0.358394    Uiso  ? C
   C209       1.0     0.124208     0.406590     0.362102    Uiso  ? C
   C210       1.0     0.144966     0.412798     0.349898    Uiso  ? C
   C211       1.0     0.155680     0.398772     0.332510    Uiso  ? C
   H129       1.0     0.146896     0.382916     0.327062    Uiso  ? H
   C212       1.0     0.175412     0.407274     0.320922    Uiso  ? C
   H130       1.0     0.182385     0.396288     0.306628    Uiso  ? H
   C213       1.0     0.186017     0.428203     0.328057    Uiso  ? C
   H131       1.0     0.201539     0.433215     0.317956    Uiso  ? H
   C214       1.0     0.175568     0.442291     0.343986    Uiso  ? C
   C215       1.0     0.155286     0.434862     0.354361    Uiso  ? C
   H132       1.0     0.146292     0.445667     0.367742    Uiso  ? H
   C216       1.0     0.188146     0.461392     0.353792    Uiso  ? C
   C217       1.0     0.116096     0.366526     0.400840    Uiso  ? C
   C218       1.0     0.132768     0.351518     0.413749    Uiso  ? C
   C219       1.0     0.129926     0.327085     0.412372    Uiso  ? C
   H133       1.0     0.118677     0.318504     0.399742    Uiso  ? H
   C220       1.0     0.143683     0.312475     0.425951    Uiso  ? C
   H134       1.0     0.142288     0.293474     0.422962    Uiso  ? H
   C221       1.0     0.160395     0.320564     0.440801    Uiso  ? C
   H135       1.0     0.170810     0.307096     0.448079    Uiso  ? H
   C222       1.0     0.162730     0.344488     0.443088    Uiso  ? C
   C223       1.0     0.148525     0.360013     0.429562    Uiso  ? C
   H136       1.0     0.149852     0.378263     0.433460    Uiso  ? H
   C224       1.0     0.180174     0.354270     0.459766    Uiso  ? C
   C225       1.0     0.748161     0.424587     0.535386    Uiso  ? C
   C226       1.0     0.736613     0.438739     0.553422    Uiso  ? C
   C227       1.0     0.713305     0.435222     0.560195    Uiso  ? C
   H137       1.0     0.701265     0.422961     0.552963    Uiso  ? H
   C228       1.0     0.704267     0.449059     0.576892    Uiso  ? C
   H138       1.0     0.686341     0.447468     0.580086    Uiso  ? H
   C229       1.0     0.717177     0.464573     0.589614    Uiso  ? C
   H139       1.0     0.708758     0.472722     0.603943    Uiso  ? H
   C230       1.0     0.740727     0.466764     0.584719    Uiso  ? C
   C231       1.0     0.750438     0.454177     0.565809    Uiso  ? C
   H140       1.0     0.768751     0.457374     0.561678    Uiso  ? H
   C232       1.0     0.755748     0.481347     0.599318    Uiso  ? C
   C233       1.0     0.756501     0.414257     0.464354    Uiso  ? C
   C234       1.0     0.747992     0.425191     0.442654    Uiso  ? C
   C235       1.0     0.729416     0.415457     0.429472    Uiso  ? C
   H141       1.0     0.720360     0.399395     0.434572    Uiso  ? H
   C236       1.0     0.723364     0.425364     0.407354    Uiso  ? C
   H142       1.0     0.711734     0.416096     0.395341    Uiso  ? H
   C237       1.0     0.733630     0.445148     0.400543    Uiso  ? C
   H143       1.0     0.730499     0.453194     0.384048    Uiso  ? H
   C238       1.0     0.749919     0.455796     0.414683    Uiso  ? C
   C239       1.0     0.757708     0.445732     0.435392    Uiso  ? C
   H144       1.0     0.770080     0.456205     0.446591    Uiso  ? H
   C240       1.0     0.760705     0.478149     0.405726    Uiso  ? C
   C241       1.0     0.796693     0.370968     0.527123    Uiso  ? C
   C242       1.0     0.812535     0.353672     0.538496    Uiso  ? C
   C243       1.0     0.808315     0.330045     0.536470    Uiso  ? C
   H145       1.0     0.795028     0.325459     0.525543    Uiso  ? H
   C244       1.0     0.821378     0.313888     0.549377    Uiso  ? C
   H146       1.0     0.815918     0.295296     0.550232    Uiso  ? H
   C245       1.0     0.840869     0.321893     0.561337    Uiso  ? C
   H147       1.0     0.851073     0.309386     0.571202    Uiso  ? H
   C246       1.0     0.844710     0.346021     0.563766    Uiso  ? C
   C247       1.0     0.829585     0.361490     0.553155    Uiso  ? C
   H148       1.0     0.832177     0.380006     0.555879    Uiso  ? H
   C248       1.0     0.861540     0.354843     0.580031    Uiso  ? C
   C249       1.0     0.761115     0.545399     0.413123    Uiso  ? C
   C250       1.0     0.750509     0.562821     0.428263    Uiso  ? C
   C251       1.0     0.726892     0.567219     0.428666    Uiso  ? C
   H149       1.0     0.714405     0.557296     0.419299    Uiso  ? H
   C252       1.0     0.717976     0.582880     0.444121    Uiso  ? C
   H150       1.0     0.699089     0.584073     0.443304    Uiso  ? H
   C253       1.0     0.731165     0.595172     0.460472    Uiso  ? C
   H151       1.0     0.723675     0.607845     0.471064    Uiso  ? H
   C254       1.0     0.755779     0.591172     0.461211    Uiso  ? C
   C255       1.0     0.765146     0.575253     0.444420    Uiso  ? C
   H152       1.0     0.783115     0.570963     0.446614    Uiso  ? H
   C256       1.0     0.769096     0.602059     0.479609    Uiso  ? C
   C257       1.0     0.801606     0.551572     0.371603    Uiso  ? C
   C258       1.0     0.811296     0.573438     0.363171    Uiso  ? C
   C259       1.0     0.800321     0.587663     0.347257    Uiso  ? C
   H153       1.0     0.783151     0.583227     0.341846    Uiso  ? H
   C260       1.0     0.810975     0.608715     0.339389    Uiso  ? C
   H154       1.0     0.800802     0.621037     0.329564    Uiso  ? H
   C261       1.0     0.833418     0.614937     0.346982    Uiso  ? C
   H155       1.0     0.842092     0.630402     0.339667    Uiso  ? H
   C262       1.0     0.843559     0.601786     0.364522    Uiso  ? C
   C263       1.0     0.832873     0.581570     0.372742    Uiso  ? C
   H156       1.0     0.841689     0.571831     0.385548    Uiso  ? H
   C264       1.0     0.865558     0.609641     0.374091    Uiso  ? C
   C265       1.0     0.860779     0.398582     0.635631    Uiso  ? C
   C266       1.0     0.844165     0.411981     0.649701    Uiso  ? C
   C267       1.0     0.836471     0.404878     0.671233    Uiso  ? C
   H157       1.0     0.841603     0.388520     0.677463    Uiso  ? H
   C268       1.0     0.822148     0.419129     0.685687    Uiso  ? C
   H158       1.0     0.816141     0.412796     0.702574    Uiso  ? H
   C269       1.0     0.814123     0.439585     0.676967    Uiso  ? C
   H159       1.0     0.803172     0.449490     0.688150    Uiso  ? H
   C270       1.0     0.821155     0.447110     0.654263    Uiso  ? C
   C271       1.0     0.836713     0.433674     0.641451    Uiso  ? C
   H160       1.0     0.844648     0.441153     0.626510    Uiso  ? H
   C272       1.0     0.811613     0.467838     0.643754    Uiso  ? C
   C273       1.0     0.119161     0.354878     0.578993    Uiso  ? C
   C274       1.0     0.132380     0.340436     0.563899    Uiso  ? C
   C275       1.0     0.130686     0.316431     0.563040    Uiso  ? C
   H161       1.0     0.119322     0.305782     0.575102    Uiso  ? H
   C276       1.0     0.144062     0.303950     0.547690    Uiso  ? C
   H162       1.0     0.143177     0.284873     0.548439    Uiso  ? H
   C277       1.0     0.159967     0.314398     0.532282    Uiso  ? C
   H163       1.0     0.170820     0.303506     0.521420    Uiso  ? H
   C278       1.0     0.162380     0.337940     0.533155    Uiso  ? C
   C279       1.0     0.149074     0.350558     0.549271    Uiso  ? C
   H164       1.0     0.150888     0.369006     0.549095    Uiso  ? H
   C280       1.0     0.177348     0.349336     0.515863    Uiso  ? C
   C281       1.0     0.223558     0.392307     0.453202    Uiso  ? C
   C282       1.0     0.234536     0.405148     0.434982    Uiso  ? C
   C283       1.0     0.256425     0.397655     0.426944    Uiso  ? C
   H165       1.0     0.265670     0.382973     0.435699    Uiso  ? H
   C284       1.0     0.267996     0.411454     0.409854    Uiso  ? C
   H166       1.0     0.285936     0.409141     0.403830    Uiso  ? H
   C285       1.0     0.256156     0.428919     0.397695    Uiso  ? C
   H167       1.0     0.265248     0.437475     0.383929    Uiso  ? H
   C286       1.0     0.235346     0.436241     0.405685    Uiso  ? C
   C287       1.0     0.223953     0.423848     0.423553    Uiso  ? C
   H168       1.0     0.208879     0.432229     0.431782    Uiso  ? H
   C288       1.0     0.223975     0.457044     0.395991    Uiso  ? C
   O109       1.0     0.862184     0.391244     0.414802    Uiso  ? O
   O110       1.0     0.865056     0.358751     0.396434    Uiso  ? O
   O111       1.0     0.862982     0.424148     0.369327    Uiso  ? O
   O112       1.0     0.846843     0.391239     0.357809    Uiso  ? O
   O113       1.0     0.123435     0.409665     0.383593    Uiso  ? O
   O114       1.0     0.106169     0.398869     0.351444    Uiso  ? O
   O115       1.0     0.116730     0.388393     0.403415    Uiso  ? O
   O116       1.0     0.897120     0.357307     0.389330    Uiso  ? O
   O117       1.0     0.762417     0.434360     0.521569    Uiso  ? O
   O118       1.0     0.744447     0.403203     0.533071    Uiso  ? O
   O119       1.0     0.775693     0.419789     0.472811    Uiso  ? O
   O120       1.0     0.744175     0.399824     0.475259    Uiso  ? O
   O121       1.0     0.796132     0.398509     0.473827    Uiso  ? O
   O122       1.0     0.780217     0.366795     0.486891    Uiso  ? O
   O123       1.0     0.800229     0.392641     0.528209    Uiso  ? O
   O124       1.0     0.780632     0.364000     0.513891    Uiso  ? O
   O125       1.0     0.783120     0.540578     0.414050    Uiso  ? O
   O126       1.0     0.749385     0.536836     0.396965    Uiso  ? O
   O127       1.0     0.804940     0.545386     0.393290    Uiso  ? O
   O128       1.0     0.789442     0.539283     0.358365    Uiso  ? O
   O129       1.0     0.808407     0.490274     0.372643    Uiso  ? O
   O130       1.0     0.772902     0.485144     0.358013    Uiso  ? O
   O131       1.0     0.775404     0.489108     0.417932    Uiso  ? O
   O132       1.0     0.756238     0.485405     0.384571    Uiso  ? O
   O133       1.0     0.875283     0.409587     0.622486    Uiso  ? O
   O134       1.0     0.858286     0.376871     0.634026    Uiso  ? O
   O135       1.0     0.868584     0.375573     0.577749    Uiso  ? O
   O136       1.0     0.871809     0.342412     0.595579    Uiso  ? O
   O137       1.0     0.122350     0.376921     0.579342    Uiso  ? O
   O138       1.0     0.105753     0.344945     0.593126    Uiso  ? O
   O139       1.0     0.130127     0.394161     0.602763    Uiso  ? O
   O140       1.0     0.119184     0.378936     0.636085    Uiso  ? O
   O141       1.0     0.174243     0.371006     0.511050    Uiso  ? O
   O142       1.0     0.193313     0.338218     0.505173    Uiso  ? O
   O143       1.0     0.181805     0.375715     0.462072    Uiso  ? O
   O144       1.0     0.192306     0.340409     0.471723    Uiso  ? O
   O145       1.0     0.203027     0.396193     0.458989    Uiso  ? O
   O146       1.0     0.234267     0.377196     0.464221    Uiso  ? O
   O147       1.0     0.224294     0.398070     0.514654    Uiso  ? O
   O148       1.0     0.227406     0.360926     0.522188    Uiso  ? O
   O149       1.0     0.823840     0.523097     0.618264    Uiso  ? O
   O150       1.0     0.809847     0.511461     0.651512    Uiso  ? O
   O151       1.0     0.800992     0.533563     0.600996    Uiso  ? O
   O152       1.0     0.772340     0.534871     0.626410    Uiso  ? O
   O153       1.0     0.771400     0.491279     0.589069    Uiso  ? O
   O154       1.0     0.757324     0.478776     0.620944    Uiso  ? O
   O155       1.0     0.813226     0.470340     0.622159    Uiso  ? O
   O156       1.0     0.801059     0.483931     0.656145    Uiso  ? O
   O157       1.0     0.884122     0.445739     0.408619    Uiso  ? O
   O158       1.0     0.817625     0.440364     0.506854    Uiso  ? O
   O159       1.0     0.826796     0.500488     0.420256    Uiso  ? O
   O160       1.0     0.890143     0.426911     0.573102    Uiso  ? O
   O161       1.0     0.174161     0.423573     0.498700    Uiso  ? O
   O162       1.0     0.821385     0.489054     0.567884    Uiso  ? O
   Zn25       1.0     0.884601     0.410966     0.395387    Uiso  ? Zn
   Zn26       1.0     0.877682     0.373999     0.362967    Uiso  ? Zn
   Zn27       1.0     0.789682     0.416051     0.505557    Uiso  ? Zn
   Zn28       1.0     0.750833     0.382180     0.505412    Uiso  ? Zn
   Zn29       1.0     0.799437     0.508710     0.402661    Uiso  ? Zn
   Zn30       1.0     0.760995     0.517859     0.368839    Uiso  ? Zn
   Zn31       1.0     0.892099     0.398283     0.593123    Uiso  ? Zn
   Zn32       1.0     0.887395     0.357248     0.625787    Uiso  ? Zn
   Zn33       1.0     0.193543     0.393760     0.493548    Uiso  ? Zn
   Zn34       1.0     0.222782     0.349897     0.487681    Uiso  ? Zn
   Zn35       1.0     0.804821     0.496985     0.598505    Uiso  ? Zn
   Zn36       1.0     0.774068     0.502419     0.641548    Uiso  ? Zn
   C289       1.0     0.160219     0.621963     0.597612    Uiso  ? C
   C290       1.0     0.183471     0.629125     0.590043    Uiso  ? C
   C291       1.0     0.199120     0.640035     0.605370    Uiso  ? C
   H169       1.0     0.192483     0.643027     0.622687    Uiso  ? H
   C292       1.0     0.221472     0.646843     0.597671    Uiso  ? C
   H170       1.0     0.233891     0.653515     0.609223    Uiso  ? H
   C293       1.0     0.227282     0.642258     0.574835    Uiso  ? C
   H171       1.0     0.244289     0.647911     0.568664    Uiso  ? H
   C294       1.0     0.213022     0.628724     0.560953    Uiso  ? C
   C295       1.0     0.190952     0.621976     0.568021    Uiso  ? C
   H172       1.0     0.178787     0.612490     0.556562    Uiso  ? H
   C296       1.0     0.220406     0.621784     0.537688    Uiso  ? C
   C297       1.0     0.144726     0.578911     0.627918    Uiso  ? C
   C298       1.0     0.162804     0.563210     0.638524    Uiso  ? C
   C299       1.0     0.165201     0.563058     0.663327    Uiso  ? C
   H173       1.0     0.156277     0.576068     0.672230    Uiso  ? H
   C300       1.0     0.175735     0.544198     0.674744    Uiso  ? C
   H174       1.0     0.173510     0.542374     0.692906    Uiso  ? H
   C301       1.0     0.186275     0.527025     0.662181    Uiso  ? C
   H175       1.0     0.191027     0.511156     0.670100    Uiso  ? H
   C302       1.0     0.185249     0.526746     0.637183    Uiso  ? C
   C303       1.0     0.173444     0.544854     0.626441    Uiso  ? C
   H176       1.0     0.172125     0.544812     0.608685    Uiso  ? H
   C304       1.0     0.198492     0.508691     0.624995    Uiso  ? C
   C305       1.0     0.888852     0.579611     0.637602    Uiso  ? C
   C306       1.0     0.874286     0.563985     0.652107    Uiso  ? C
   C307       1.0     0.877286     0.561873     0.675761    Uiso  ? C
   H177       1.0     0.891174     0.570701     0.682917    Uiso  ? H
   C308       1.0     0.862980     0.546414     0.688221    Uiso  ? C
   H178       1.0     0.864155     0.545687     0.707785    Uiso  ? H
   C309       1.0     0.846556     0.533698     0.677448    Uiso  ? C
   H179       1.0     0.837115     0.521753     0.688033    Uiso  ? H
   C310       1.0     0.843674     0.535648     0.653117    Uiso  ? C
   C311       1.0     0.857260     0.550796     0.640829    Uiso  ? C
   H180       1.0     0.855186     0.551046     0.623069    Uiso  ? H
   C312       1.0     0.824859     0.522675     0.640033    Uiso  ? C
   C313       1.0     0.885513     0.636566     0.592725    Uiso  ? C
   C314       1.0     0.868238     0.653039     0.582932    Uiso  ? C
   C315       1.0     0.859044     0.670840     0.596986    Uiso  ? C
   H181       1.0     0.867625     0.676354     0.613775    Uiso  ? H
   C316       1.0     0.839194     0.683196     0.590190    Uiso  ? C
   H182       1.0     0.833364     0.698201     0.600529    Uiso  ? H
   C317       1.0     0.828982     0.677148     0.569264    Uiso  ? C
   H183       1.0     0.814035     0.684957     0.565671    Uiso  ? H
   C318       1.0     0.836418     0.657670     0.556135    Uiso  ? C
   C319       1.0     0.856596     0.646572     0.562330    Uiso  ? C
   H184       1.0     0.861867     0.631039     0.553937    Uiso  ? H
   C320       1.0     0.820736     0.646027     0.538958    Uiso  ? C
   C321       1.0     0.247302     0.578416     0.466078    Uiso  ? C
   C322       1.0     0.256754     0.565572     0.445387    Uiso  ? C
   C323       1.0     0.280222     0.565137     0.440090    Uiso  ? C
   H185       1.0     0.291165     0.576265     0.450368    Uiso  ? H
   C324       1.0     0.287913     0.553449     0.421072    Uiso  ? C
   H186       1.0     0.306383     0.551893     0.417884    Uiso  ? H
   C325       1.0     0.271974     0.542264     0.406046    Uiso  ? C
   H187       1.0     0.279508     0.532293     0.392579    Uiso  ? H
   C326       1.0     0.247354     0.540838     0.412385    Uiso  ? C
   C327       1.0     0.240899     0.551975     0.433140    Uiso  ? C
   H188       1.0     0.222722     0.550617     0.436925    Uiso  ? H
   C328       1.0     0.231965     0.524322     0.399640    Uiso  ? C
   C329       1.0     0.250817     0.574954     0.528816    Uiso  ? C
   C330       1.0     0.261065     0.561120     0.547704    Uiso  ? C
   C331       1.0     0.283115     0.566424     0.556602    Uiso  ? C
   H189       1.0     0.294592     0.579454     0.549095    Uiso  ? H
   C332       1.0     0.292571     0.552547     0.574245    Uiso  ? C
   H190       1.0     0.309016     0.557430     0.581306    Uiso  ? H
   C333       1.0     0.280251     0.534800     0.584450    Uiso  ? C
   H191       1.0     0.286638     0.525774     0.599495    Uiso  ? H
   C334       1.0     0.257208     0.530831     0.577026    Uiso  ? C
   C335       1.0     0.248214     0.543525     0.558739    Uiso  ? C
   H192       1.0     0.231903     0.538482     0.551202    Uiso  ? H
   C336       1.0     0.244861     0.510919     0.586498    Uiso  ? C
   C337       1.0     0.211732     0.626518     0.464716    Uiso  ? C
   C338       1.0     0.200652     0.639620     0.446709    Uiso  ? C
   C339       1.0     0.205695     0.663622     0.445178    Uiso  ? C
   H193       1.0     0.221840     0.670220     0.452370    Uiso  ? H
   C340       1.0     0.190727     0.678302     0.433039    Uiso  ? C
   H194       1.0     0.196668     0.696511     0.429979    Uiso  ? H
   C341       1.0     0.170317     0.669530     0.422110    Uiso  ? C
   H195       1.0     0.160810     0.681944     0.410965    Uiso  ? H
   C342       1.0     0.166432     0.645731     0.422539    Uiso  ? C
   C343       1.0     0.180934     0.630513     0.434918    Uiso  ? C
   H196       1.0     0.175861     0.613544     0.434905    Uiso  ? H
   C344       1.0     0.145723     0.636540     0.410145    Uiso  ? C
   C345       1.0     0.244753     0.441969     0.588353    Uiso  ? C
   C346       1.0     0.248651     0.418194     0.579493    Uiso  ? C
   C347       1.0     0.262241     0.401879     0.591296    Uiso  ? C
   H197       1.0     0.268188     0.406058     0.608015    Uiso  ? H
   C348       1.0     0.264126     0.379129     0.583012    Uiso  ? C
   H198       1.0     0.274369     0.366450     0.592157    Uiso  ? H
   C349       1.0     0.252460     0.372798     0.563612    Uiso  ? C
   H199       1.0     0.251824     0.354217     0.558417    Uiso  ? H
   C350       1.0     0.241205     0.389296     0.550588    Uiso  ? C
   C351       1.0     0.237873     0.411622     0.559110    Uiso  ? C
   H200       1.0     0.226017     0.422990     0.549763    Uiso  ? H
   C352       1.0     0.230425     0.381796     0.528635    Uiso  ? C
   C353       1.0     0.203181     0.443362     0.627424    Uiso  ? C
   C354       1.0     0.191376     0.422722     0.636656    Uiso  ? C
   C355       1.0     0.199174     0.412063     0.656822    Uiso  ? C
   H201       1.0     0.214886     0.418236     0.666100    Uiso  ? H
   C356       1.0     0.184910     0.396764     0.668126    Uiso  ? C
   H202       1.0     0.188621     0.391649     0.685169    Uiso  ? H
   C357       1.0     0.163938     0.389462     0.657998    Uiso  ? C
   H203       1.0     0.154471     0.376130     0.667517    Uiso  ? H
   C358       1.0     0.157097     0.396945     0.635434    Uiso  ? C
   C359       1.0     0.170894     0.414540     0.625517    Uiso  ? C
   H204       1.0     0.164562     0.422421     0.608889    Uiso  ? H
   C360       1.0     0.134744     0.388928     0.624131    Uiso  ? C
   C361       1.0     0.134631     0.597092     0.366969    Uiso  ? C
   C362       1.0     0.148912     0.582203     0.351529    Uiso  ? C
   C363       1.0     0.149575     0.585551     0.327813    Uiso  ? C
   H205       1.0     0.139156     0.598812     0.319486    Uiso  ? H
   C364       1.0     0.165106     0.572412     0.314661    Uiso  ? C
   H206       1.0     0.168523     0.576084     0.296792    Uiso  ? H
   C365       1.0     0.176720     0.553852     0.323915    Uiso  ? C
   H207       1.0     0.190622     0.544838     0.314264    Uiso  ? H
   C366       1.0     0.176457     0.549428     0.348584    Uiso  ? C
   C367       1.0     0.161766     0.564208     0.361565    Uiso  ? C
   H208       1.0     0.159600     0.561271     0.380052    Uiso  ? H
   C368       1.0     0.189949     0.530279     0.359320    Uiso  ? C
   C369       1.0     0.875283     0.648793     0.415524    Uiso  ? C
   C370       1.0     0.859219     0.661501     0.429616    Uiso  ? C
   C371       1.0     0.851009     0.683788     0.423045    Uiso  ? C
   H209       1.0     0.856969     0.692553     0.407026    Uiso  ? H
   C372       1.0     0.835021     0.695975     0.438200    Uiso  ? C
   H210       1.0     0.826196     0.710099     0.430398    Uiso  ? H
   C373       1.0     0.825973     0.684954     0.458188    Uiso  ? C
   H211       1.0     0.811532     0.692748     0.465600    Uiso  ? H
   C374       1.0     0.834246     0.662592     0.464226    Uiso  ? C
   C375       1.0     0.851103     0.651867     0.450785    Uiso  ? C
   H212       1.0     0.855829     0.633495     0.454380    Uiso  ? H
   C376       1.0     0.821037     0.648537     0.482081    Uiso  ? C
   C377       1.0     0.786573     0.607191     0.552728    Uiso  ? C
   C378       1.0     0.781450     0.599885     0.576422    Uiso  ? C
   C379       1.0     0.773094     0.615374     0.593261    Uiso  ? C
   H213       1.0     0.769085     0.633117     0.588200    Uiso  ? H
   C380       1.0     0.770263     0.608668     0.616453    Uiso  ? C
   H214       1.0     0.764803     0.621203     0.629673    Uiso  ? H
   C381       1.0     0.773978     0.585769     0.622555    Uiso  ? C
   H215       1.0     0.768417     0.579950     0.639095    Uiso  ? H
   C382       1.0     0.780308     0.569352     0.605784    Uiso  ? C
   C383       1.0     0.786208     0.577329     0.584043    Uiso  ? C
   H216       1.0     0.792983     0.565497     0.572098    Uiso  ? H
   C384       1.0     0.784580     0.544876     0.611242    Uiso  ? C
   O163       1.0     0.149772     0.604262     0.588323    Uiso  ? O
   O164       1.0     0.150925     0.633886     0.614083    Uiso  ? O
   O165       1.0     0.144165     0.580995     0.606107    Uiso  ? O
   O166       1.0     0.133437     0.593098     0.641245    Uiso  ? O
   O167       1.0     0.888592     0.577987     0.615694    Uiso  ? O
   O168       1.0     0.105727     0.594961     0.647290    Uiso  ? O
   O169       1.0     0.893793     0.621707     0.579662    Uiso  ? O
   O170       1.0     0.891772     0.638826     0.613481    Uiso  ? O
   O171       1.0     0.226603     0.581947     0.468740    Uiso  ? O
   O172       1.0     0.262216     0.589326     0.479200    Uiso  ? O
   O173       1.0     0.232826     0.567769     0.518164    Uiso  ? O
   O174       1.0     0.257435     0.595899     0.527161    Uiso  ? O
   O175       1.0     0.205448     0.615949     0.522591    Uiso  ? O
   O176       1.0     0.240646     0.619264     0.533185    Uiso  ? O
   O177       1.0     0.207664     0.604791     0.467555    Uiso  ? O
   O178       1.0     0.225404     0.636092     0.479354    Uiso  ? O
   O179       1.0     0.236333     0.457205     0.575486    Uiso  ? O
   O180       1.0     0.245128     0.444646     0.610424    Uiso  ? O
   O181       1.0     0.192159     0.456774     0.613235    Uiso  ? O
   O182       1.0     0.225520     0.445398     0.629794    Uiso  ? O
   O183       1.0     0.201138     0.508104     0.602751    Uiso  ? O
   O184       1.0     0.211787     0.495525     0.636849    Uiso  ? O
   O185       1.0     0.222377     0.509719     0.585346    Uiso  ? O
   O186       1.0     0.255560     0.495438     0.599066    Uiso  ? O
   O187       1.0     0.135822     0.594838     0.389152    Uiso  ? O
   O188       1.0     0.121937     0.612777     0.357967    Uiso  ? O
   O189       1.0     0.141607     0.615008     0.408334    Uiso  ? O
   O190       1.0     0.130512     0.651001     0.402860    Uiso  ? O
   O191       1.0     0.888871     0.634149     0.424885    Uiso  ? O
   O192       1.0     0.874836     0.650688     0.392638    Uiso  ? O
   O193       1.0     0.879698     0.595168     0.382257    Uiso  ? O
   O194       1.0     0.870464     0.631080     0.372650    Uiso  ? O
   O195       1.0     0.831833     0.633168     0.494700    Uiso  ? O
   O196       1.0     0.799961     0.653672     0.485693    Uiso  ? O
   O197       1.0     0.829224     0.631187     0.525026    Uiso  ? O
   O198       1.0     0.798468     0.648229     0.539738    Uiso  ? O
   O199       1.0     0.799482     0.594044     0.539538    Uiso  ? O
   O200       1.0     0.779653     0.626476     0.545005    Uiso  ? O
   O201       1.0     0.790945     0.599810     0.479602    Uiso  ? O
   O202       1.0     0.759506     0.614457     0.494842    Uiso  ? O
   O203       1.0     0.177097     0.476103     0.366081    Uiso  ? O
   O204       1.0     0.210249     0.461520     0.352882    Uiso  ? O
   O205       1.0     0.211180     0.470876     0.408266    Uiso  ? O
   O206       1.0     0.228239     0.461376     0.374960    Uiso  ? O
   O207       1.0     0.209789     0.525167     0.401941    Uiso  ? O
   O208       1.0     0.240879     0.510232     0.385844    Uiso  ? O
   O209       1.0     0.189206     0.528293     0.381188    Uiso  ? O
   O210       1.0     0.199364     0.514788     0.347192    Uiso  ? O
   O211       1.0     0.103310     0.576452     0.559446    Uiso  ? O
   O212       1.0     0.178259     0.570115     0.505681    Uiso  ? O
   O213       1.0     0.188240     0.472672     0.559176    Uiso  ? O
   O214       1.0     0.889471     0.582149     0.430226    Uiso  ? O
   O215       1.0     0.832163     0.574177     0.500899    Uiso  ? O
   O216       1.0     0.157587     0.491359     0.414097    Uiso  ? O
   Zn37       1.0     0.112888     0.593980     0.590579    Uiso  ? Zn
   Zn38       1.0     0.118758     0.626449     0.632704    Uiso  ? Zn
   Zn39       1.0     0.209192     0.588066     0.500664    Uiso  ? Zn
   Zn40       1.0     0.251673     0.618264     0.498029    Uiso  ? Zn
   Zn41       1.0     0.207505     0.476577     0.588119    Uiso  ? Zn
   Zn42       1.0     0.241897     0.477511     0.626726    Uiso  ? Zn
   Zn43       1.0     0.106215     0.605002     0.407190    Uiso  ? Zn
   Zn44       1.0     0.108708     0.642971     0.374451    Uiso  ? Zn
   Zn45       1.0     0.813438     0.604258     0.506726    Uiso  ? Zn
   Zn46       1.0     0.776156     0.640056     0.511278    Uiso  ? Zn
   Zn47       1.0     0.187987     0.495120     0.395410    Uiso  ? Zn
   Zn48       1.0     0.226845     0.493284     0.357079    Uiso  ? Zn
   H217       1.0     0.176309     0.552928     0.506931    Uiso  ? H
   H218       1.0     0.164640     0.580295     0.506078    Uiso  ? H
   H219       1.0     0.834065     0.436898     0.508508    Uiso  ? H
   H220       1.0     0.812776     0.455670     0.509785    Uiso  ? H
   H221       1.0     0.831309     0.475909     0.564702    Uiso  ? H
   H222       1.0     0.821497     0.500859     0.556261    Uiso  ? H
   H223       1.0     0.108974     0.434755     0.572849    Uiso  ? H
   H224       1.0     0.878402     0.431937     0.562100    Uiso  ? H
   H225       1.0     0.155373     0.493347     0.430827    Uiso  ? H
   H226       1.0     0.144310     0.488189     0.403830    Uiso  ? H
   H227       1.0     0.876245     0.456822     0.399837    Uiso  ? H
   H228       1.0     0.888924     0.448850     0.424619    Uiso  ? H
   H229       1.0     0.165556     0.425161     0.512065    Uiso  ? H
   H230       1.0     0.173643     0.436449     0.487624    Uiso  ? H
   H231       1.0     0.886591     0.567172     0.424379    Uiso  ? H
   H232       1.0     0.892670     0.581123     0.446738    Uiso  ? H
   H233       1.0     0.827636     0.490976     0.434147    Uiso  ? H
   H234       1.0     0.841681     0.504712     0.414121    Uiso  ? H
   H235       1.0     0.848224     0.575047     0.505790    Uiso  ? H
   H236       1.0     0.826540     0.562148     0.490590    Uiso  ? H
   H237       1.0     0.190824     0.459206     0.548787    Uiso  ? H
   H238       1.0     0.180073     0.485222     0.552560    Uiso  ? H
   H239       1.0     0.110600     0.562551     0.553950    Uiso  ? H
   H240       1.0     0.886843     0.582272     0.550844    Uiso  ? H
   C385       1.0     0.646725     0.891343     0.422078    Uiso  ? C
   C386       1.0     0.658710     0.875179     0.438173    Uiso  ? C
   C387       1.0     0.682545     0.873279     0.437740    Uiso  ? C
   H241       1.0     0.692928     0.882847     0.425072    Uiso  ? H
   C388       1.0     0.692731     0.857195     0.452555    Uiso  ? C
   H242       1.0     0.710869     0.856324     0.452732    Uiso  ? H
   C389       1.0     0.679632     0.841124     0.465666    Uiso  ? C
   H243       1.0     0.689622     0.827560     0.475847    Uiso  ? H
   C390       1.0     0.656132     0.843362     0.466299    Uiso  ? C
   C391       1.0     0.645653     0.860740     0.452707    Uiso  ? C
   H244       1.0     0.627308     0.862381     0.453924    Uiso  ? H
   C392       1.0     0.640243     0.825278     0.478308    Uiso  ? C
   C393       1.0     0.604874     0.877873     0.366401    Uiso  ? C
   C394       1.0     0.591646     0.860883     0.351616    Uiso  ? C
   C395       1.0     0.592172     0.863091     0.327610    Uiso  ? C
   H245       1.0     0.602457     0.875539     0.317873    Uiso  ? H
   C396       1.0     0.577753     0.847492     0.314913    Uiso  ? C
   H246       1.0     0.576284     0.851082     0.296565    Uiso  ? H
   C397       1.0     0.562786     0.831984     0.324872    Uiso  ? C
   H247       1.0     0.553269     0.821548     0.313475    Uiso  ? H
   C398       1.0     0.563006     0.830400     0.349334    Uiso  ? C
   C399       1.0     0.577672     0.843876     0.363000    Uiso  ? C
   H248       1.0     0.576097     0.844086     0.381043    Uiso  ? H
   C400       1.0     0.545419     0.815165     0.360259    Uiso  ? C
   C401       1.0     0.606468     0.155952     0.374197    Uiso  ? C
   C402       1.0     0.597866     0.179339     0.368112    Uiso  ? C
   C403       1.0     0.613011     0.196681     0.358787    Uiso  ? C
   H249       1.0     0.630476     0.192609     0.353231    Uiso  ? H
   C404       1.0     0.606165     0.220647     0.357129    Uiso  ? C
   H250       1.0     0.618499     0.233865     0.350879    Uiso  ? H
   C405       1.0     0.583199     0.226867     0.363097    Uiso  ? C
   H251       1.0     0.577734     0.244776     0.359171    Uiso  ? H
   C406       1.0     0.567834     0.209616     0.371285    Uiso  ? C
   C407       1.0     0.575123     0.186454     0.375031    Uiso  ? C
   H252       1.0     0.564705     0.173041     0.383299    Uiso  ? H
   C408       1.0     0.543573     0.215645     0.376681    Uiso  ? C
   C409       1.0     0.637443     0.149674     0.418174    Uiso  ? C
   C410       1.0     0.647033     0.169378     0.430773    Uiso  ? C
   C411       1.0     0.666045     0.181603     0.422949    Uiso  ? C
   H253       1.0     0.672471     0.176898     0.405207    Uiso  ? H
   C412       1.0     0.673464     0.201081     0.434285    Uiso  ? C
   H254       1.0     0.684699     0.213290     0.424683    Uiso  ? H
   C413       1.0     0.662499     0.207990     0.454211    Uiso  ? C
   H255       1.0     0.669329     0.223680     0.462501    Uiso  ? H
   C414       1.0     0.644805     0.194681     0.464610    Uiso  ? C
   C415       1.0     0.637791     0.174657     0.452711    Uiso  ? C
   H256       1.0     0.623381     0.163980     0.457308    Uiso  ? H
   C416       1.0     0.630756     0.205147     0.483825    Uiso  ? C
   C417       1.0     0.601871     0.766409     0.525946    Uiso  ? C
   C418       1.0     0.587360     0.752681     0.542302    Uiso  ? C
   C419       1.0     0.591343     0.728338     0.545678    Uiso  ? C
   H257       1.0     0.605859     0.720321     0.536403    Uiso  ? H
   C420       1.0     0.580310     0.716035     0.563029    Uiso  ? C
   H258       1.0     0.585647     0.698601     0.566263    Uiso  ? H
   C421       1.0     0.561715     0.726881     0.575700    Uiso  ? C
   H259       1.0     0.551999     0.717013     0.588481    Uiso  ? H
   C422       1.0     0.555561     0.750278     0.570953    Uiso  ? C
   C423       1.0     0.570141     0.763118     0.555719    Uiso  ? C
   H260       1.0     0.569191     0.781701     0.555188    Uiso  ? H
   C424       1.0     0.536173     0.762705     0.584382    Uiso  ? C
   C425       1.0     0.617016     0.772141     0.452721    Uiso  ? C
   C426       1.0     0.611327     0.764764     0.428140    Uiso  ? C
   C427       1.0     0.625673     0.752336     0.413124    Uiso  ? C
   H261       1.0     0.643068     0.748226     0.418588    Uiso  ? H
   C428       1.0     0.618544     0.744970     0.391200    Uiso  ? C
   H262       1.0     0.629258     0.735241     0.380254    Uiso  ? H
   C429       1.0     0.596103     0.750214     0.383327    Uiso  ? C
   H263       1.0     0.591400     0.743551     0.366107    Uiso  ? H
   C430       1.0     0.581160     0.763752     0.397752    Uiso  ? C
   C431       1.0     0.589803     0.772054     0.419308    Uiso  ? C
   H264       1.0     0.578350     0.782049     0.430865    Uiso  ? H
   C432       1.0     0.557594     0.770106     0.391631    Uiso  ? C
   C433       1.0     0.644753     0.807454     0.527576    Uiso  ? C
   C434       1.0     0.655926     0.823018     0.545238    Uiso  ? C
   C435       1.0     0.679532     0.823850     0.548142    Uiso  ? C
   H265       1.0     0.690283     0.811774     0.538936    Uiso  ? H
   C436       1.0     0.689570     0.838445     0.565775    Uiso  ? C
   H266       1.0     0.708499     0.839381     0.566972    Uiso  ? H
   C437       1.0     0.674947     0.852395     0.579969    Uiso  ? C
   H267       1.0     0.682507     0.863911     0.592638    Uiso  ? H
   C438       1.0     0.650784     0.851537     0.576360    Uiso  ? C
   C439       1.0     0.641540     0.837215     0.559024    Uiso  ? C
   H268       1.0     0.622739     0.837776     0.554894    Uiso  ? H
   C440       1.0     0.636130     0.867023     0.589809    Uiso  ? C
   C441       1.0     0.491044     0.758786     0.404443    Uiso  ? C
   C442       1.0     0.472717     0.746172     0.417001    Uiso  ? C
   C443       1.0     0.471333     0.721418     0.415043    Uiso  ? C
   H269       1.0     0.479407     0.710798     0.401150    Uiso  ? H
   C444       1.0     0.457320     0.708655     0.430522    Uiso  ? C
   H270       1.0     0.456850     0.689963     0.430695    Uiso  ? H
   C445       1.0     0.443653     0.720165     0.446140    Uiso  ? C
   H271       1.0     0.432609     0.710693     0.458692    Uiso  ? H
   C446       1.0     0.443665     0.744009     0.447100    Uiso  ? C
   C447       1.0     0.457940     0.756925     0.432282    Uiso  ? C
   H272       1.0     0.456353     0.774786     0.432424    Uiso  ? H
   C448       1.0     0.427656     0.756539     0.461963    Uiso  ? C
   C449       1.0     0.489078     0.810651     0.354631    Uiso  ? C
   C450       1.0     0.473770     0.827143     0.341598    Uiso  ? C
   C451       1.0     0.475596     0.830532     0.316832    Uiso  ? C
   H273       1.0     0.487912     0.820783     0.307138    Uiso  ? H
   C452       1.0     0.459334     0.843371     0.304583    Uiso  ? C
   H274       1.0     0.458691     0.845958     0.285723    Uiso  ? H
   C453       1.0     0.441935     0.854994     0.317378    Uiso  ? C
   H275       1.0     0.428294     0.863753     0.308342    Uiso  ? H
   C454       1.0     0.442355     0.856042     0.341001    Uiso  ? C
   C455       1.0     0.458281     0.841639     0.353417    Uiso  ? C
   H276       1.0     0.457770     0.843409     0.372057    Uiso  ? H
   C456       1.0     0.427660     0.872913     0.353309    Uiso  ? C
   C457       1.0     0.589442     0.870430     0.642566    Uiso  ? C
   C458       1.0     0.575277     0.852198     0.653418    Uiso  ? C
   C459       1.0     0.577478     0.847086     0.677552    Uiso  ? C
   H277       1.0     0.587644     0.857720     0.689801    Uiso  ? H
   C460       1.0     0.563516     0.831394     0.688178    Uiso  ? C
   H278       1.0     0.563196     0.831020     0.707557    Uiso  ? H
   C461       1.0     0.548904     0.818158     0.675005    Uiso  ? C
   H279       1.0     0.538860     0.804156     0.683010    Uiso  ? H
   C462       1.0     0.545461     0.822390     0.651157    Uiso  ? C
   C463       1.0     0.558732     0.839516     0.640666    Uiso  ? C
   H280       1.0     0.557990     0.838400     0.621567    Uiso  ? H
   C464       1.0     0.529711     0.808842     0.638259    Uiso  ? C
   C465       1.0     0.629829     0.143205     0.607953    Uiso  ? C
   C466       1.0     0.634592     0.167959     0.602508    Uiso  ? C
   C467       1.0     0.646552     0.182190     0.617334    Uiso  ? C
   H281       1.0     0.653725     0.174087     0.633536    Uiso  ? H
   C468       1.0     0.647807     0.205788     0.613553    Uiso  ? C
   H282       1.0     0.656106     0.217556     0.624469    Uiso  ? H
   C469       1.0     0.639374     0.214748     0.592887    Uiso  ? C
   H283       1.0     0.639630     0.232960     0.591296    Uiso  ? H
   C470       1.0     0.629757     0.200427     0.576062    Uiso  ? C
   C471       1.0     0.625461     0.177619     0.581846    Uiso  ? C
   H284       1.0     0.617578     0.165797     0.569854    Uiso  ? H
   C472       1.0     0.621255     0.209716     0.553700    Uiso  ? C
   C473       1.0     0.576815     0.251100     0.491391    Uiso  ? C
   C474       1.0     0.560701     0.264759     0.476527    Uiso  ? C
   C475       1.0     0.560450     0.289097     0.477024    Uiso  ? C
   H285       1.0     0.572435     0.298814     0.488252    Uiso  ? H
   C476       1.0     0.547343     0.301869     0.460761    Uiso  ? C
   H286       1.0     0.547459     0.319717     0.461837    Uiso  ? H
   C477       1.0     0.533198     0.290101     0.445105    Uiso  ? C
   H287       1.0     0.521260     0.299860     0.436001    Uiso  ? H
   C478       1.0     0.533019     0.266157     0.444050    Uiso  ? C
   C479       1.0     0.547929     0.253814     0.459247    Uiso  ? C
   H288       1.0     0.551051     0.234934     0.457925    Uiso  ? H
   C480       1.0     0.520957     0.251703     0.424879    Uiso  ? C
   O217       1.0     0.628732     0.104532     0.427815    Uiso  ? O
   O218       1.0     0.653869     0.891731     0.401148    Uiso  ? O
   O219       1.0     0.602198     0.877700     0.388022    Uiso  ? O
   O220       1.0     0.614521     0.895099     0.357776    Uiso  ? O
   O221       1.0     0.592478     0.142167     0.383439    Uiso  ? O
   O222       1.0     0.628194     0.152132     0.373939    Uiso  ? O
   O223       1.0     0.625279     0.133821     0.427084    Uiso  ? O
   O224       1.0     0.643936     0.147045     0.396970    Uiso  ? O
   O225       1.0     0.601263     0.788381     0.527501    Uiso  ? O
   O226       1.0     0.616066     0.756829     0.512661    Uiso  ? O
   O227       1.0     0.602570     0.781869     0.465410    Uiso  ? O
   O228       1.0     0.636917     0.767373     0.459929    Uiso  ? O
   O229       1.0     0.619430     0.829456     0.481714    Uiso  ? O
   O230       1.0     0.649684     0.806136     0.484117    Uiso  ? O
   O231       1.0     0.622705     0.805319     0.527266    Uiso  ? O
   O232       1.0     0.656651     0.797466     0.512903    Uiso  ? O
   O233       1.0     0.504322     0.771129     0.416654    Uiso  ? O
   O234       1.0     0.490852     0.761002     0.382477    Uiso  ? O
   O235       1.0     0.487258     0.809395     0.376996    Uiso  ? O
   O236       1.0     0.505360     0.799722     0.344320    Uiso  ? O
   O237       1.0     0.544161     0.813810     0.382041    Uiso  ? O
   O238       1.0     0.533661     0.801056     0.348572    Uiso  ? O
   O239       1.0     0.549473     0.789215     0.397911    Uiso  ? O
   O240       1.0     0.547052     0.757874     0.376353    Uiso  ? O
   O241       1.0     0.581094     0.881657     0.625624    Uiso  ? O
   O242       1.0     0.610497     0.872620     0.649135    Uiso  ? O
   O243       1.0     0.614530     0.866143     0.588033    Uiso  ? O
   O244       1.0     0.644916     0.881771     0.604064    Uiso  ? O
   O245       1.0     0.620533     0.129501     0.592526    Uiso  ? O
   O246       1.0     0.632184     0.135165     0.628752    Uiso  ? O
   O247       1.0     0.578853     0.115055     0.626100    Uiso  ? O
   O248       1.0     0.609504     0.127851     0.645026    Uiso  ? O
   O249       1.0     0.604459     0.199746     0.544033    Uiso  ? O
   O250       1.0     0.631798     0.226832     0.544778    Uiso  ? O
   O251       1.0     0.619210     0.191599     0.497083    Uiso  ? O
   O252       1.0     0.631137     0.226634     0.487138    Uiso  ? O
   O253       1.0     0.577066     0.229013     0.490491    Uiso  ? O
   O254       1.0     0.590402     0.261867     0.505351    Uiso  ? O
   O255       1.0     0.580006     0.218610     0.541728    Uiso  ? O
   O256       1.0     0.590634     0.254484     0.533403    Uiso  ? O
   O257       1.0     0.470910     0.800380     0.605628    Uiso  ? O
   O258       1.0     0.475123     0.778058     0.636265    Uiso  ? O
   O259       1.0     0.479390     0.782374     0.579680    Uiso  ? O
   O260       1.0     0.495571     0.750738     0.595934    Uiso  ? O
   O261       1.0     0.532128     0.784257     0.581481    Uiso  ? O
   O262       1.0     0.523070     0.751634     0.597790    Uiso  ? O
   O263       1.0     0.514641     0.819207     0.626306    Uiso  ? O
   O264       1.0     0.532635     0.787368     0.637270    Uiso  ? O
   O265       1.0     0.569059     0.110504     0.415422    Uiso  ? O
   O266       1.0     0.567563     0.816997     0.493097    Uiso  ? O
   O267       1.0     0.509078     0.826395     0.426244    Uiso  ? O
   O268       1.0     0.579108     0.895850     0.568642    Uiso  ? O
   O269       1.0     0.569457     0.176052     0.500666    Uiso  ? O
   O270       1.0     0.509032     0.833475     0.573476    Uiso  ? O
   Zn49       1.0     0.601696     0.113855     0.403638    Uiso  ? Zn
   Zn50       1.0     0.641307     0.117435     0.374131    Uiso  ? Zn
   Zn51       1.0     0.601653     0.802847     0.494147    Uiso  ? Zn
   Zn52       1.0     0.642080     0.770850     0.493356    Uiso  ? Zn
   Zn53       1.0     0.514481     0.801013     0.400595    Uiso  ? Zn
   Zn54       1.0     0.518943     0.769165     0.359046    Uiso  ? Zn
   Zn55       1.0     0.597782     0.897297     0.598121    Uiso  ? Zn
   Zn56       1.0     0.632257     0.896684     0.635143    Uiso  ? Zn
   Zn57       1.0     0.590108     0.203273     0.510410    Uiso  ? Zn
   Zn58       1.0     0.621315     0.244612     0.515360    Uiso  ? Zn
   Zn59       1.0     0.505419     0.804848     0.593266    Uiso  ? Zn
   Zn60       1.0     0.508007     0.764508     0.627915    Uiso  ? Zn
   C481       1.0     0.360230     0.113283     0.580000    Uiso  ? C
   C482       1.0     0.347447     0.125836     0.562277    Uiso  ? C
   C483       1.0     0.324346     0.119273     0.555467    Uiso  ? C
   H289       1.0     0.314883     0.107240     0.565706    Uiso  ? H
   C484       1.0     0.312787     0.131956     0.538104    Uiso  ? C
   H290       1.0     0.294422     0.130154     0.533135    Uiso  ? H
   C485       1.0     0.325272     0.147859     0.524899    Uiso  ? C
   H291       1.0     0.317327     0.155730     0.510074    Uiso  ? H
   C486       1.0     0.348239     0.154402     0.531602    Uiso  ? C
   C487       1.0     0.358793     0.144890     0.550578    Uiso  ? C
   H292       1.0     0.375341     0.150916     0.557085    Uiso  ? H
   C488       1.0     0.360348     0.172847     0.519380    Uiso  ? C
   C489       1.0     0.397414     0.119556     0.642647    Uiso  ? C
   C490       1.0     0.406493     0.138731     0.657598    Uiso  ? C
   C491       1.0     0.395331     0.147315     0.676704    Uiso  ? C
   H293       1.0     0.378755     0.138989     0.680188    Uiso  ? H
   C492       1.0     0.404659     0.164745     0.689330    Uiso  ? C
   H294       1.0     0.395753     0.169365     0.704694    Uiso  ? H
   C493       1.0     0.424886     0.175858     0.682149    Uiso  ? C
   H295       1.0     0.431774     0.191293     0.691553    Uiso  ? H
   C494       1.0     0.436514     0.167995     0.663026    Uiso  ? C
   C495       1.0     0.427087     0.149707     0.650576    Uiso  ? C
   H296       1.0     0.434523     0.145795     0.633666    Uiso  ? H
   C496       1.0     0.456213     0.180938     0.653714    Uiso  ? C
   C497       1.0     0.393704     0.842087     0.622493    Uiso  ? C
   C498       1.0     0.403597     0.820156     0.629687    Uiso  ? C
   C499       1.0     0.393843     0.806388     0.646538    Uiso  ? C
   H297       1.0     0.376467     0.810551     0.653777    Uiso  ? H
   C500       1.0     0.404843     0.786437     0.654105    Uiso  ? C
   H298       1.0     0.393867     0.774181     0.665171    Uiso  ? H
   C501       1.0     0.425580     0.779541     0.644249    Uiso  ? C
   H299       1.0     0.433736     0.763958     0.649204    Uiso  ? H
   C502       1.0     0.437192     0.794736     0.628867    Uiso  ? C
   C503       1.0     0.424281     0.813506     0.620240    Uiso  ? C
   H300       1.0     0.432433     0.823158     0.606713    Uiso  ? H
   C504       1.0     0.462016     0.790705     0.623168    Uiso  ? C
   C505       1.0     0.362064     0.857840     0.581991    Uiso  ? C
   C506       1.0     0.351076     0.843179     0.563258    Uiso  ? C
   C507       1.0     0.326912     0.841594     0.559412    Uiso  ? C
   H301       1.0     0.315775     0.850804     0.569533    Uiso  ? H
   C508       1.0     0.318481     0.825250     0.542898    Uiso  ? C
   H302       1.0     0.300964     0.824333     0.539778    Uiso  ? H
   C509       1.0     0.334260     0.811404     0.530465    Uiso  ? C
   H303       1.0     0.326516     0.800269     0.516970    Uiso  ? H
   C510       1.0     0.357694     0.812809     0.534927    Uiso  ? C
   C511       1.0     0.365696     0.828724     0.551010    Uiso  ? C
   H304       1.0     0.382995     0.829366     0.553799    Uiso  ? H
   C512       1.0     0.373999     0.799814     0.519865    Uiso  ? C
   C513       1.0     0.405014     0.230899     0.470749    Uiso  ? C
   C514       1.0     0.416905     0.245904     0.453375    Uiso  ? C
   C515       1.0     0.411500     0.269209     0.451097    Uiso  ? C
   H305       1.0     0.398044     0.277086     0.461960    Uiso  ? H
   C516       1.0     0.422035     0.283489     0.434339    Uiso  ? C
   H306       1.0     0.417196     0.300988     0.433640    Uiso  ? H
   C517       1.0     0.441621     0.275210     0.422974    Uiso  ? C
   H307       1.0     0.450691     0.286233     0.411133    Uiso  ? H
   C518       1.0     0.448042     0.251593     0.424366    Uiso  ? C
   C519       1.0     0.433372     0.237070     0.437503    Uiso  ? C
   H308       1.0     0.437789     0.219466     0.438275    Uiso  ? H
   C520       1.0     0.467642     0.241490     0.411091    Uiso  ? C
   C521       1.0     0.394545     0.228856     0.541993    Uiso  ? C
   C522       1.0     0.400935     0.234128     0.566813    Uiso  ? C
   C523       1.0     0.385781     0.245648     0.581465    Uiso  ? C
   H309       1.0     0.369571     0.252069     0.573991    Uiso  ? H
   C524       1.0     0.390471     0.249957     0.604486    Uiso  ? C
   H310       1.0     0.378528     0.260838     0.614642    Uiso  ? H
   C525       1.0     0.410506     0.241314     0.614121    Uiso  ? C
   H311       1.0     0.414409     0.244784     0.631825    Uiso  ? H
   C526       1.0     0.426803     0.229599     0.600623    Uiso  ? C
   C527       1.0     0.422876     0.228540     0.576232    Uiso  ? C
   H312       1.0     0.435615     0.220451     0.565467    Uiso  ? H
   C528       1.0     0.448836     0.220198     0.611391    Uiso  ? C
   C529       1.0     0.367317     0.188301     0.465579    Uiso  ? C
   C530       1.0     0.357720     0.175012     0.446064    Uiso  ? C
   C531       1.0     0.333313     0.175194     0.441574    Uiso  ? C
   H313       1.0     0.322460     0.187517     0.450192    Uiso  ? H
   C532       1.0     0.323613     0.161557     0.424270    Uiso  ? C
   H314       1.0     0.305954     0.162517     0.420064    Uiso  ? H
   C533       1.0     0.338059     0.147830     0.411325    Uiso  ? C
   H315       1.0     0.330246     0.137125     0.397273    Uiso  ? H
   C534       1.0     0.362476     0.145303     0.416484    Uiso  ? C
   C535       1.0     0.371478     0.159803     0.433083    Uiso  ? C
   H316       1.0     0.390896     0.159148     0.434533    Uiso  ? H
   C536       1.0     0.376599     0.127981     0.403569    Uiso  ? C
   C537       1.0     0.517355     0.229860     0.606055    Uiso  ? C
   C538       1.0     0.531980     0.244734     0.591123    Uiso  ? C
   C539       1.0     0.528727     0.269030     0.592176    Uiso  ? C
   H317       1.0     0.515988     0.276328     0.602856    Uiso  ? H
   C540       1.0     0.540585     0.284034     0.577521    Uiso  ? C
   H318       1.0     0.535724     0.302257     0.575842    Uiso  ? H
   C541       1.0     0.555710     0.274859     0.561100    Uiso  ? C
   H319       1.0     0.564526     0.286917     0.549382    Uiso  ? H
   C542       1.0     0.559156     0.251078     0.559448    Uiso  ? C
   C543       1.0     0.546474     0.236083     0.573745    Uiso  ? C
   H320       1.0     0.549717     0.217784     0.573168    Uiso  ? H
   C544       1.0     0.578104     0.240517     0.544839    Uiso  ? C
   C545       1.0     0.523587     0.186935     0.648483    Uiso  ? C
   C546       1.0     0.544829     0.174862     0.658143    Uiso  ? C
   C547       1.0     0.553251     0.182077     0.679893    Uiso  ? C
   H321       1.0     0.545808     0.197069     0.687678    Uiso  ? H
   C548       1.0     0.572381     0.171270     0.688970    Uiso  ? C
   H322       1.0     0.582014     0.177575     0.703517    Uiso  ? H
   C549       1.0     0.582985     0.152094     0.676668    Uiso  ? C
   H323       1.0     0.597485     0.144548     0.684519    Uiso  ? H
   C550       1.0     0.574850     0.145453     0.655017    Uiso  ? C
   C551       1.0     0.555616     0.156910     0.645271    Uiso  ? C
   H324       1.0     0.550708     0.154304     0.628111    Uiso  ? H
   C552       1.0     0.588400     0.129554     0.640233    Uiso  ? C
   C553       1.0     0.414836     0.135910     0.364330    Uiso  ? C
   C554       1.0     0.422599     0.159187     0.357209    Uiso  ? C
   C555       1.0     0.412551     0.169006     0.337776    Uiso  ? C
   H325       1.0     0.398303     0.161635     0.328238    Uiso  ? H
   C556       1.0     0.418791     0.191825     0.331979    Uiso  ? C
   H326       1.0     0.410379     0.199641     0.317266    Uiso  ? H
   C557       1.0     0.436057     0.203488     0.344252    Uiso  ? C
   H327       1.0     0.442312     0.220551     0.339083    Uiso  ? H
   C558       1.0     0.447358     0.192645     0.363498    Uiso  ? C
   C559       1.0     0.439243     0.170822     0.369939    Uiso  ? C
   H328       1.0     0.449243     0.161844     0.383894    Uiso  ? H
   C560       1.0     0.468031     0.202942     0.374776    Uiso  ? C
   C561       1.0     0.385469     0.852238     0.388887    Uiso  ? C
   C562       1.0     0.382796     0.827871     0.394731    Uiso  ? C
   C563       1.0     0.377506     0.811916     0.377588    Uiso  ? C
   H329       1.0     0.373431     0.818383     0.360015    Uiso  ? H
   C564       1.0     0.376320     0.788061     0.382972    Uiso  ? C
   H330       1.0     0.375784     0.773239     0.369917    Uiso  ? H
   C565       1.0     0.379639     0.781643     0.405451    Uiso  ? C
   H331       1.0     0.379485     0.763229     0.408564    Uiso  ? H
   C566       1.0     0.384390     0.797416     0.423332    Uiso  ? C
   C567       1.0     0.383377     0.821013     0.417927    Uiso  ? C
   H332       1.0     0.387672     0.833503     0.430662    Uiso  ? H
   C568       1.0     0.389523     0.790310     0.446816    Uiso  ? C
   C569       1.0     0.428793     0.752409     0.513624    Uiso  ? C
   C570       1.0     0.443443     0.740966     0.530507    Uiso  ? C
   C571       1.0     0.444769     0.716260     0.532450    Uiso  ? C
   H333       1.0     0.434864     0.705878     0.520650    Uiso  ? H
   C572       1.0     0.457841     0.705689     0.549970    Uiso  ? C
   H334       1.0     0.458220     0.686733     0.552052    Uiso  ? H
   C573       1.0     0.470137     0.719563     0.565334    Uiso  ? C
   H335       1.0     0.480047     0.711305     0.579121    Uiso  ? H
   C574       1.0     0.469147     0.743873     0.564204    Uiso  ? C
   C575       1.0     0.456587     0.754629     0.546339    Uiso  ? C
   H336       1.0     0.456355     0.773717     0.545732    Uiso  ? H
   C576       1.0     0.481314     0.759926     0.580605    Uiso  ? C
   O271       1.0     0.383050     0.113127     0.579147    Uiso  ? O
   O272       1.0     0.349128     0.102149     0.595349    Uiso  ? O
   O273       1.0     0.410706     0.107634     0.629578    Uiso  ? O
   O274       1.0     0.375289     0.116888     0.641598    Uiso  ? O
   O275       1.0     0.401144     0.851347     0.603773    Uiso  ? O
   O276       1.0     0.380959     0.853688     0.636232    Uiso  ? O
   O277       1.0     0.384469     0.859549     0.583408    Uiso  ? O
   O278       1.0     0.349208     0.868781     0.596899    Uiso  ? O
   O279       1.0     0.406997     0.209042     0.469861    Uiso  ? O
   O280       1.0     0.390768     0.239947     0.484823    Uiso  ? O
   O281       1.0     0.409313     0.218440     0.529143    Uiso  ? O
   O282       1.0     0.373019     0.229831     0.535880    Uiso  ? O
   O283       1.0     0.381758     0.171816     0.519277    Uiso  ? O
   O284       1.0     0.349230     0.188750     0.507958    Uiso  ? O
   O285       1.0     0.389218     0.187701     0.470920    Uiso  ? O
   O286       1.0     0.352784     0.196667     0.479984    Uiso  ? O
   O287       1.0     0.519229     0.207907     0.606062    Uiso  ? O
   O288       1.0     0.502706     0.237930     0.620330    Uiso  ? O
   O289       1.0     0.521393     0.190034     0.627036    Uiso  ? O
   O290       1.0     0.508175     0.195666     0.661586    Uiso  ? O
   O291       1.0     0.469359     0.171182     0.638714    Uiso  ? O
   O292       1.0     0.455376     0.203101     0.653185    Uiso  ? O
   O293       1.0     0.464305     0.209978     0.599005    Uiso  ? O
   O294       1.0     0.452900     0.223672     0.632915    Uiso  ? O
   O295       1.0     0.418888     0.129527     0.384956    Uiso  ? O
   O296       1.0     0.401198     0.124301     0.351827    Uiso  ? O
   O297       1.0     0.399270     0.127509     0.405055    Uiso  ? O
   O298       1.0     0.366348     0.113082     0.391081    Uiso  ? O
   O299       1.0     0.390685     0.867013     0.404302    Uiso  ? O
   O300       1.0     0.383845     0.858482     0.367572    Uiso  ? O
   O301       1.0     0.434481     0.882279     0.371799    Uiso  ? O
   O302       1.0     0.405850     0.871416     0.349520    Uiso  ? O
   O303       1.0     0.395980     0.805760     0.461031    Uiso  ? O
   O304       1.0     0.386056     0.769169     0.452790    Uiso  ? O
   O305       1.0     0.395464     0.803639     0.522244    Uiso  ? O
   O306       1.0     0.365838     0.788312     0.502742    Uiso  ? O
   O307       1.0     0.435442     0.770156     0.502880    Uiso  ? O
   O308       1.0     0.407999     0.746098     0.509834    Uiso  ? O
   O309       1.0     0.436089     0.773143     0.475031    Uiso  ? O
   O310       1.0     0.406268     0.752215     0.461866    Uiso  ? O
   O311       1.0     0.528661     0.199589     0.380808    Uiso  ? O
   O312       1.0     0.537196     0.236765     0.376453    Uiso  ? O
   O313       1.0     0.521333     0.229655     0.426576    Uiso  ? O
   O314       1.0     0.510919     0.261588     0.407046    Uiso  ? O
   O315       1.0     0.473296     0.220517     0.414593    Uiso  ? O
   O316       1.0     0.480621     0.254596     0.399430    Uiso  ? O
   O317       1.0     0.472878     0.198104     0.396526    Uiso  ? O
   O318       1.0     0.480606     0.216969     0.364583    Uiso  ? O
   O319       1.0     0.433049     0.894426     0.582899    Uiso  ? O
   O320       1.0     0.436544     0.175073     0.508965    Uiso  ? O
   O321       1.0     0.487322     0.164967     0.582508    Uiso  ? O
   O322       1.0     0.431760     0.887478     0.428543    Uiso  ? O
   O323       1.0     0.432575     0.831250     0.489666    Uiso  ? O
   O324       1.0     0.514711     0.170633     0.423785    Uiso  ? O
   Zn61       1.0     0.401447     0.887933     0.599021    Uiso  ? Zn
   Zn62       1.0     0.359407     0.881862     0.628270    Uiso  ? Zn
   Zn63       1.0     0.405147     0.192221     0.503520    Uiso  ? Zn
   Zn64       1.0     0.363736     0.223605     0.502797    Uiso  ? Zn
   Zn65       1.0     0.489196     0.186202     0.610854    Uiso  ? Zn
   Zn66       1.0     0.486232     0.221984     0.648315    Uiso  ? Zn
   Zn67       1.0     0.413632     0.892875     0.398195    Uiso  ? Zn
   Zn68       1.0     0.378163     0.892900     0.359209    Uiso  ? Zn
   Zn69       1.0     0.415275     0.799520     0.491264    Uiso  ? Zn
   Zn70       1.0     0.380696     0.760551     0.487233    Uiso  ? Zn
   Zn71       1.0     0.506338     0.203180     0.407851    Uiso  ? Zn
   Zn72       1.0     0.503521     0.243183     0.374839    Uiso  ? Zn
   H337       1.0     0.434675     0.158692     0.510635    Uiso  ? H
   H338       1.0     0.449291     0.182838     0.516342    Uiso  ? H
   H339       1.0     0.554682     0.807222     0.497283    Uiso  ? H
   H340       1.0     0.563843     0.832824     0.490930    Uiso  ? H
   H341       1.0     0.507990     0.830442     0.556373    Uiso  ? H
   H342       1.0     0.511376     0.849686     0.578932    Uiso  ? H
   H343       1.0     0.575407     0.880802     0.564278    Uiso  ? H
   H344       1.0     0.574094     0.112123     0.559770    Uiso  ? H
   H345       1.0     0.528230     0.161670     0.419982    Uiso  ? H
   H346       1.0     0.500628     0.163408     0.430922    Uiso  ? H
   H347       1.0     0.562544     0.893629     0.423313    Uiso  ? H
   H348       1.0     0.560374     0.123980     0.418046    Uiso  ? H
   H349       1.0     0.556876     0.177403     0.489853    Uiso  ? H
   H350       1.0     0.574488     0.161024     0.503944    Uiso  ? H
   H351       1.0     0.426412     0.892155     0.444169    Uiso  ? H
   H352       1.0     0.442701     0.874665     0.426373    Uiso  ? H
   H353       1.0     0.500701     0.840648     0.423866    Uiso  ? H
   H354       1.0     0.516902     0.823364     0.440207    Uiso  ? H
   H355       1.0     0.448864     0.831579     0.485849    Uiso  ? H
   H356       1.0     0.425644     0.845151     0.496237    Uiso  ? H
   H357       1.0     0.501073     0.164246     0.572149    Uiso  ? H
   H358       1.0     0.473300     0.155530     0.579259    Uiso  ? H
   H359       1.0     0.435824     0.112920     0.574308    Uiso  ? H
   H360       1.0     0.446094     0.886073     0.589588    Uiso  ? H
   C577       1.0     0.404608     0.367810     0.131489    Uiso  ? C
   C578       1.0     0.413440     0.358558     0.154184    Uiso  ? C
   C579       1.0     0.405922     0.337321     0.163018    Uiso  ? C
   H361       1.0     0.393959     0.327514     0.153271    Uiso  ? H
   C580       1.0     0.414016     0.328845     0.183851    Uiso  ? C
   H362       1.0     0.409146     0.311750     0.187821    Uiso  ? H
   C581       1.0     0.431447     0.339975     0.194493    Uiso  ? C
   H363       1.0     0.439544     0.330101     0.208893    Uiso  ? H
   C582       1.0     0.441398     0.360391     0.186574    Uiso  ? C
   C583       1.0     0.431320     0.369457     0.165600    Uiso  ? C
   H364       1.0     0.437303     0.386829     0.158686    Uiso  ? H
   C584       1.0     0.461848     0.371757     0.197244    Uiso  ? C
   C585       1.0     0.365530     0.411303     0.125637    Uiso  ? C
   C586       1.0     0.352327     0.423219     0.144561    Uiso  ? C
   C587       1.0     0.332083     0.412122     0.153381    Uiso  ? C
   H365       1.0     0.329327     0.394234     0.148842    Uiso  ? H
   C588       1.0     0.319545     0.422982     0.170865    Uiso  ? C
   H366       1.0     0.304523     0.415693     0.179245    Uiso  ? H
   C589       1.0     0.327518     0.444459     0.180020    Uiso  ? C
   H367       1.0     0.317135     0.452629     0.192908    Uiso  ? H
   C590       1.0     0.348967     0.453568     0.172942    Uiso  ? C
   C591       1.0     0.360528     0.443407     0.154473    Uiso  ? C
   H368       1.0     0.377236     0.450504     0.148548    Uiso  ? H
   C592       1.0     0.359537     0.472843     0.185716    Uiso  ? C
   C593       1.0     0.368457     0.406677     0.858465    Uiso  ? C
   C594       1.0     0.357829     0.419635     0.840446    Uiso  ? C
   C595       1.0     0.333703     0.417490     0.836310    Uiso  ? C
   H369       1.0     0.322864     0.405862     0.846737    Uiso  ? H
   C596       1.0     0.323071     0.432075     0.820128    Uiso  ? C
   H370       1.0     0.304279     0.430956     0.815355    Uiso  ? H
   C597       1.0     0.336936     0.447826     0.806945    Uiso  ? C
   H371       1.0     0.329163     0.457516     0.792991    Uiso  ? H
   C598       1.0     0.361317     0.448715     0.809503    Uiso  ? C
   C599       1.0     0.371377     0.435248     0.827298    Uiso  ? C
   H372       1.0     0.390282     0.436537     0.829258    Uiso  ? H
   C600       1.0     0.374917     0.466319     0.796093    Uiso  ? C
   C601       1.0     0.408549     0.364750     0.863164    Uiso  ? C
   C602       1.0     0.421538     0.352231     0.845131    Uiso  ? C
   C603       1.0     0.417319     0.328367     0.839223    Uiso  ? C
   H373       1.0     0.405445     0.318158     0.849391    Uiso  ? H
   C604       1.0     0.430990     0.317270     0.821597    Uiso  ? C
   H374       1.0     0.428388     0.298364     0.819858    Uiso  ? H
   C605       1.0     0.448964     0.328950     0.811554    Uiso  ? C
   H375       1.0     0.462061     0.318475     0.802272    Uiso  ? H
   C606       1.0     0.453121     0.352457     0.816325    Uiso  ? C
   C607       1.0     0.438198     0.364416     0.831830    Uiso  ? C
   H376       1.0     0.441625     0.382909     0.835273    Uiso  ? H
   C608       1.0     0.472724     0.364829     0.805898    Uiso  ? C
   C609       1.0     0.521955     0.418193     0.241531    Uiso  ? C
   C610       1.0     0.529791     0.438016     0.254865    Uiso  ? C
   C611       1.0     0.527352     0.441071     0.279193    Uiso  ? C
   H377       1.0     0.517165     0.428897     0.289551    Uiso  ? H
   C612       1.0     0.538369     0.459281     0.291022    Uiso  ? C
   H378       1.0     0.536587     0.461533     0.309564    Uiso  ? H
   C613       1.0     0.553461     0.473975     0.278750    Uiso  ? C
   H379       1.0     0.561843     0.488338     0.288769    Uiso  ? H
   C614       1.0     0.557094     0.470260     0.255081    Uiso  ? C
   C615       1.0     0.544992     0.453160     0.242654    Uiso  ? C
   H380       1.0     0.548059     0.450980     0.224706    Uiso  ? H
   C616       1.0     0.573525     0.484068     0.241630    Uiso  ? C
   C617       1.0     0.467180     0.411165     0.232954    Uiso  ? C
   C618       1.0     0.449206     0.423779     0.245737    Uiso  ? C
   C619       1.0     0.442064     0.417964     0.268243    Uiso  ? C
   H381       1.0     0.448391     0.402610     0.277274    Uiso  ? H
   C620       1.0     0.425737     0.431601     0.279491    Uiso  ? C
   H382       1.0     0.421338     0.427815     0.297773    Uiso  ? H
   C621       1.0     0.414665     0.450096     0.267887    Uiso  ? C
   H383       1.0     0.400478     0.459426     0.276725    Uiso  ? H
   C622       1.0     0.420104     0.454694     0.245528    Uiso  ? C
   C623       1.0     0.437011     0.440732     0.234806    Uiso  ? C
   H384       1.0     0.440388     0.444270     0.217009    Uiso  ? H
   C624       1.0     0.406765     0.472222     0.231852    Uiso  ? C
   C625       1.0     0.534397     0.364511     0.194359    Uiso  ? C
   C626       1.0     0.555229     0.352078     0.186151    Uiso  ? C
   C627       1.0     0.562412     0.332303     0.198539    Uiso  ? C
   H385       1.0     0.551691     0.323703     0.211129    Uiso  ? H
   C628       1.0     0.583718     0.322056     0.190365    Uiso  ? C
   H386       1.0     0.588590     0.306603     0.198385    Uiso  ? H
   C629       1.0     0.596352     0.331940     0.172365    Uiso  ? C
   H387       1.0     0.611817     0.322677     0.166260    Uiso  ? H
   C630       1.0     0.588123     0.350087     0.160233    Uiso  ? C
   C631       1.0     0.566940     0.360158     0.166443    Uiso  ? C
   H388       1.0     0.561435     0.375807     0.157053    Uiso  ? H
   C632       1.0     0.599345     0.359561     0.140049    Uiso  ? C
   C633       1.0     0.390246     0.542452     0.224469    Uiso  ? C
   C634       1.0     0.396308     0.567222     0.229585    Uiso  ? C
   C635       1.0     0.378912     0.582618     0.236797    Uiso  ? C
   H389       1.0     0.360026     0.577791     0.240611    Uiso  ? H
   C636       1.0     0.384628     0.606724     0.239889    Uiso  ? C
   H390       1.0     0.371831     0.619260     0.242874    Uiso  ? H
   C637       1.0     0.407101     0.614752     0.235736    Uiso  ? C
   H391       1.0     0.410284     0.632931     0.236598    Uiso  ? H
   C638       1.0     0.423673     0.599655     0.226868    Uiso  ? C
   C639       1.0     0.418158     0.576613     0.223220    Uiso  ? C
   H392       1.0     0.431540     0.566359     0.214689    Uiso  ? H
   C640       1.0     0.446537     0.609269     0.219525    Uiso  ? C
   C641       1.0     0.357526     0.526931     0.180295    Uiso  ? C
   C642       1.0     0.342367     0.540096     0.164353    Uiso  ? C
   C643       1.0     0.320125     0.545540     0.170654    Uiso  ? C
   H393       1.0     0.311393     0.537655     0.185534    Uiso  ? H
   C644       1.0     0.308374     0.562139     0.156999    Uiso  ? C
   H394       1.0     0.290569     0.566392     0.161174    Uiso  ? H
   C645       1.0     0.319549     0.573999     0.139845    Uiso  ? C
   H395       1.0     0.312415     0.588478     0.130854    Uiso  ? H
   C646       1.0     0.342753     0.568859     0.134619    Uiso  ? C
   C647       1.0     0.353954     0.551319     0.146364    Uiso  ? C
   H396       1.0     0.372898     0.547824     0.143862    Uiso  ? H
   C648       1.0     0.355820     0.583079     0.117545    Uiso  ? C
   C649       1.0     0.635940     0.404148     0.146348    Uiso  ? C
   C650       1.0     0.642180     0.414490     0.168721    Uiso  ? C
   C651       1.0     0.655063     0.401049     0.183700    Uiso  ? C
   H397       1.0     0.665196     0.386438     0.177078    Uiso  ? H
   C652       1.0     0.662028     0.409641     0.204843    Uiso  ? C
   H398       1.0     0.674404     0.400494     0.214952    Uiso  ? H
   C653       1.0     0.652227     0.430727     0.212307    Uiso  ? C
   H399       1.0     0.657829     0.437933     0.228569    Uiso  ? H
   C654       1.0     0.639201     0.445476     0.197586    Uiso  ? C
   C655       1.0     0.633404     0.436182     0.175507    Uiso  ? C
   H400       1.0     0.623717     0.447430     0.163765    Uiso  ? H
   C656       1.0     0.629504     0.468001     0.204684    Uiso  ? C
   C657       1.0     0.605196     0.365175     0.869708    Uiso  ? C
   C658       1.0     0.598047     0.354575     0.847214    Uiso  ? C
   C659       1.0     0.611210     0.336921     0.836803    Uiso  ? C
   H401       1.0     0.626097     0.329315     0.843853    Uiso  ? H
   C660       1.0     0.603594     0.328525     0.815346    Uiso  ? C
   H402       1.0     0.613533     0.315113     0.806144    Uiso  ? H
   C661       1.0     0.583141     0.335743     0.805199    Uiso  ? C
   H403       1.0     0.579682     0.332988     0.787633    Uiso  ? H
   C662       1.0     0.569243     0.351196     0.816618    Uiso  ? C
   C663       1.0     0.576118     0.360099     0.837600    Uiso  ? C
   H404       1.0     0.566504     0.375165     0.845176    Uiso  ? H
   C664       1.0     0.546639     0.359814     0.806765    Uiso  ? C
   C665       1.0     0.481021     0.402635     0.760574    Uiso  ? C
   C666       1.0     0.463374     0.415563     0.747559    Uiso  ? C
   C667       1.0     0.458890     0.408416     0.724842    Uiso  ? C
   H405       1.0     0.470125     0.395421     0.715358    Uiso  ? H
   C668       1.0     0.440160     0.418450     0.712569    Uiso  ? C
   H406       1.0     0.435924     0.414295     0.695787    Uiso  ? H
   C669       1.0     0.425379     0.434366     0.724092    Uiso  ? C
   H407       1.0     0.409708     0.438819     0.714422    Uiso  ? H
   C670       1.0     0.429767     0.441639     0.747408    Uiso  ? C
   C671       1.0     0.448677     0.430549     0.759356    Uiso  ? C
   H408       1.0     0.452834     0.436459     0.776469    Uiso  ? H
   C672       1.0     0.416576     0.461674     0.757355    Uiso  ? C
   O325       1.0     0.418767     0.375449     0.116663    Uiso  ? O
   O326       1.0     0.383801     0.366892     0.127219    Uiso  ? O
   O327       1.0     0.380289     0.422189     0.113023    Uiso  ? O
   O328       1.0     0.362327     0.389575     0.124052    Uiso  ? O
   O329       1.0     0.390872     0.408308     0.861462    Uiso  ? O
   O330       1.0     0.356000     0.396473     0.874254    Uiso  ? O
   O331       1.0     0.408476     0.386037     0.864574    Uiso  ? O
   O332       1.0     0.395867     0.353400     0.877159    Uiso  ? O
   O333       1.0     0.522213     0.421513     0.219824    Uiso  ? O
   O334       1.0     0.509369     0.402120     0.250541    Uiso  ? O
   O335       1.0     0.469993     0.413783     0.211016    Uiso  ? O
   O336       1.0     0.481564     0.399473     0.245081    Uiso  ? O
   O337       1.0     0.468232     0.392182     0.190458    Uiso  ? O
   O338       1.0     0.472966     0.360987     0.213278    Uiso  ? O
   O339       1.0     0.523658     0.377814     0.181782    Uiso  ? O
   O340       1.0     0.529561     0.364329     0.215513    Uiso  ? O
   O341       1.0     0.406244     0.530727     0.215150    Uiso  ? O
   O342       1.0     0.369867     0.535476     0.226358    Uiso  ? O
   O343       1.0     0.374959     0.514122     0.172577    Uiso  ? O
   O344       1.0     0.353121     0.526914     0.201672    Uiso  ? O
   O345       1.0     0.375734     0.485315     0.176780    Uiso  ? O
   O346       1.0     0.353206     0.476528     0.206177    Uiso  ? O
   O347       1.0     0.408137     0.472710     0.210187    Uiso  ? O
   O348       1.0     0.394106     0.487613     0.241308    Uiso  ? O
   O349       1.0     0.621917     0.414270     0.132477    Uiso  ? O
   O350       1.0     0.639554     0.382675     0.142703    Uiso  ? O
   O351       1.0     0.587042     0.367241     0.123201    Uiso  ? O
   O352       1.0     0.621450     0.362623     0.139924    Uiso  ? O
   O353       1.0     0.602616     0.387187     0.873199    Uiso  ? O
   O354       1.0     0.615367     0.353475     0.884908    Uiso  ? O
   O355       1.0     0.619952     0.409139     0.879185    Uiso  ? O
   O356       1.0     0.652651     0.394603     0.891368    Uiso  ? O
   O357       1.0     0.532301     0.369177     0.820055    Uiso  ? O
   O358       1.0     0.543632     0.360097     0.785142    Uiso  ? O
   O359       1.0     0.474265     0.387073     0.805327    Uiso  ? O
   O360       1.0     0.488890     0.353106     0.797406    Uiso  ? O
   O361       1.0     0.484111     0.406155     0.782009    Uiso  ? O
   O362       1.0     0.492443     0.385563     0.751813    Uiso  ? O
   O363       1.0     0.527839     0.414468     0.782912    Uiso  ? O
   O364       1.0     0.539343     0.381400     0.767664    Uiso  ? O
   O365       1.0     0.602149     0.536494     0.191274    Uiso  ? O
   O366       1.0     0.632239     0.530812     0.214906    Uiso  ? O
   O367       1.0     0.581222     0.535834     0.213183    Uiso  ? O
   O368       1.0     0.591066     0.523454     0.248725    Uiso  ? O
   O369       1.0     0.572793     0.485608     0.219304    Uiso  ? O
   O370       1.0     0.588905     0.496597     0.252815    Uiso  ? O
   O371       1.0     0.622260     0.482395     0.190306    Uiso  ? O
   O372       1.0     0.625924     0.471129     0.225541    Uiso  ? O
   O373       1.0     0.436341     0.422283     0.900000    Uiso  ? O
   O374       1.0     0.503822     0.427847     0.165455    Uiso  ? O
   O375       1.0     0.430308     0.504360     0.171070    Uiso  ? O
   O376       1.0     0.570120     0.415014     0.112323    Uiso  ? O
   O377       1.0     0.504061     0.420980     0.836445    Uiso  ? O
   O378       1.0     0.580561     0.497442     0.162148    Uiso  ? O
   Zn73       1.0     0.406590     0.401696     0.896758    Uiso  ? Zn
   Zn74       1.0     0.367673     0.368165     0.894894    Uiso  ? Zn
   Zn75       1.0     0.502326     0.405878     0.192294    Uiso  ? Zn
   Zn76       1.0     0.499362     0.371314     0.233146    Uiso  ? Zn
   Zn77       1.0     0.402265     0.502521     0.192996    Uiso  ? Zn
   Zn78       1.0     0.363165     0.499943     0.227406    Uiso  ? Zn
   Zn79       1.0     0.600744     0.398786     0.108040    Uiso  ? Zn
   Zn80       1.0     0.639376     0.368438     0.107797    Uiso  ? Zn
   Zn81       1.0     0.509045     0.396668     0.808813    Uiso  ? Zn
   Zn82       1.0     0.509718     0.361175     0.770649    Uiso  ? Zn
   Zn83       1.0     0.593109     0.504715     0.195672    Uiso  ? Zn
   Zn84       1.0     0.621784     0.505198     0.237952    Uiso  ? Zn
   C673       1.0     0.597128     0.640253     0.865765    Uiso  ? C
   C674       1.0     0.583679     0.654002     0.848941    Uiso  ? C
   C675       1.0     0.590590     0.676521     0.844031    Uiso  ? C
   H409       1.0     0.607360     0.684476     0.849862    Uiso  ? H
   C676       1.0     0.576994     0.689826     0.827408    Uiso  ? C
   H410       1.0     0.582544     0.707092     0.821180    Uiso  ? H
   C677       1.0     0.557490     0.679412     0.816943    Uiso  ? C
   H411       1.0     0.547379     0.689312     0.804600    Uiso  ? H
   C678       1.0     0.551587     0.656468     0.822512    Uiso  ? C
   C679       1.0     0.564658     0.643634     0.839048    Uiso  ? C
   H412       1.0     0.559246     0.626120     0.842817    Uiso  ? H
   C680       1.0     0.533744     0.644568     0.809121    Uiso  ? C
   C681       1.0     0.635736     0.599333     0.869808    Uiso  ? C
   C682       1.0     0.647966     0.588229     0.850066    Uiso  ? C
   C683       1.0     0.671023     0.594264     0.842915    Uiso  ? C
   H413       1.0     0.679679     0.609489     0.851239    Uiso  ? H
   C684       1.0     0.681859     0.583542     0.824699    Uiso  ? C
   H414       1.0     0.698303     0.590091     0.818593    Uiso  ? H
   C685       1.0     0.671257     0.564601     0.813024    Uiso  ? C
   H415       1.0     0.680724     0.554726     0.799884    Uiso  ? H
   C686       1.0     0.649744     0.555982     0.820998    Uiso  ? C
   C687       1.0     0.637741     0.569343     0.837735    Uiso  ? C
   H416       1.0     0.620118     0.565348     0.840481    Uiso  ? H
   C688       1.0     0.638755     0.536665     0.809593    Uiso  ? C
   C689       1.0     0.629748     0.599514     0.137090    Uiso  ? C
   C690       1.0     0.637492     0.590589     0.158778    Uiso  ? C
   C691       1.0     0.654430     0.602255     0.172108    Uiso  ? C
   H417       1.0     0.660156     0.619580     0.168137    Uiso  ? H
   C692       1.0     0.663049     0.591854     0.191188    Uiso  ? C
   H418       1.0     0.676990     0.600189     0.199699    Uiso  ? H
   C693       1.0     0.653201     0.571793     0.199510    Uiso  ? C
   H419       1.0     0.657933     0.566388     0.216217    Uiso  ? H
   C694       1.0     0.634653     0.561106     0.187872    Uiso  ? C
   C695       1.0     0.627485     0.569611     0.167133    Uiso  ? C
   H420       1.0     0.614447     0.560053     0.157247    Uiso  ? H
   C696       1.0     0.623400     0.540492     0.197155    Uiso  ? C
   C697       1.0     0.589030     0.641347     0.133969    Uiso  ? C
   C698       1.0     0.577630     0.650042     0.154987    Uiso  ? C
   C699       1.0     0.591094     0.663373     0.169431    Uiso  ? C
   H421       1.0     0.608731     0.667291     0.165254    Uiso  ? H
   C700       1.0     0.582466     0.670454     0.190733    Uiso  ? C
   H422       1.0     0.592346     0.680883     0.201965    Uiso  ? H
   C701       1.0     0.559990     0.664418     0.197124    Uiso  ? C
   H423       1.0     0.555270     0.670845     0.214340    Uiso  ? H
   C702       1.0     0.546649     0.650265     0.182224    Uiso  ? C
   C703       1.0     0.555194     0.642608     0.160582    Uiso  ? C
   H424       1.0     0.543660     0.632295     0.149101    Uiso  ? H
   C704       1.0     0.524071     0.640999     0.190560    Uiso  ? C
   C705       1.0     0.476030     0.595644     0.761676    Uiso  ? C
   C706       1.0     0.460993     0.579923     0.747363    Uiso  ? C
   C707       1.0     0.454433     0.585442     0.724592    Uiso  ? C
   H425       1.0     0.463111     0.600023     0.715842    Uiso  ? H
   C708       1.0     0.436137     0.573838     0.712552    Uiso  ? C
   H426       1.0     0.432417     0.579082     0.695334    Uiso  ? H
   C709       1.0     0.426333     0.555206     0.723045    Uiso  ? C
   H427       1.0     0.414640     0.544445     0.712835    Uiso  ? H
   C710       1.0     0.432883     0.547874     0.745387    Uiso  ? C
   C711       1.0     0.450461     0.560378     0.757427    Uiso  ? C
   H428       1.0     0.455777     0.554400     0.775204    Uiso  ? H
   C712       1.0     0.420140     0.528648     0.755320    Uiso  ? C
   C713       1.0     0.532232     0.589646     0.766995    Uiso  ? C
   C714       1.0     0.550409     0.575009     0.756071    Uiso  ? C
   C715       1.0     0.550596     0.574193     0.731816    Uiso  ? C
   H429       1.0     0.540187     0.586705     0.721784    Uiso  ? H
   C716       1.0     0.564815     0.559418     0.720581    Uiso  ? C
   H430       1.0     0.566784     0.561710     0.701728    Uiso  ? H
   C717       1.0     0.580421     0.546409     0.733474    Uiso  ? C
   H431       1.0     0.592789     0.536622     0.723401    Uiso  ? H
   C718       1.0     0.581122     0.546620     0.757718    Uiso  ? C
   C719       1.0     0.563744     0.559520     0.769192    Uiso  ? C
   H432       1.0     0.564865     0.561201     0.788382    Uiso  ? H
   C720       1.0     0.597265     0.531504     0.771410    Uiso  ? C
   C721       1.0     0.463410     0.635386     0.801917    Uiso  ? C
   C722       1.0     0.443291     0.646656     0.813720    Uiso  ? C
   C723       1.0     0.435680     0.668269     0.805721    Uiso  ? C
   H433       1.0     0.444160     0.677739     0.790522    Uiso  ? H
   C724       1.0     0.416530     0.678573     0.817367    Uiso  ? C
   H434       1.0     0.409897     0.693677     0.809490    Uiso  ? H
   C725       1.0     0.404367     0.666405     0.834708    Uiso  ? C
   H435       1.0     0.388481     0.673179     0.841500    Uiso  ? H
   C726       1.0     0.412232     0.644604     0.841645    Uiso  ? C
   C727       1.0     0.433372     0.636279     0.832908    Uiso  ? C
   H436       1.0     0.440014     0.619838     0.838640    Uiso  ? H
   C728       1.0     0.400905     0.630809     0.860372    Uiso  ? C
   C729       1.0     0.602153     0.464340     0.774360    Uiso  ? C
   C730       1.0     0.590559     0.445947     0.761770    Uiso  ? C
   C731       1.0     0.602163     0.434672     0.743462    Uiso  ? C
   H437       1.0     0.616911     0.441006     0.736197    Uiso  ? H
   C732       1.0     0.593582     0.414078     0.734389    Uiso  ? C
   H438       1.0     0.603153     0.407447     0.720394    Uiso  ? H
   C733       1.0     0.572962     0.404542     0.741598    Uiso  ? C
   H439       1.0     0.566737     0.387606     0.733938    Uiso  ? H
   C734       1.0     0.561426     0.414788     0.760502    Uiso  ? C
   C735       1.0     0.569360     0.435302     0.770441    Uiso  ? C
   H440       1.0     0.560905     0.442698     0.785929    Uiso  ? H
   C736       1.0     0.541646     0.403594     0.769763    Uiso  ? C
   C737       1.0     0.642642     0.469120     0.817239    Uiso  ? C
   C738       1.0     0.654386     0.449490     0.829163    Uiso  ? C
   C739       1.0     0.675999     0.441606     0.821460    Uiso  ? C
   H441       1.0     0.684777     0.449163     0.806320    Uiso  ? H
   C740       1.0     0.686603     0.422193     0.832708    Uiso  ? C
   H442       1.0     0.703945     0.417303     0.827116    Uiso  ? H
   C741       1.0     0.676881     0.412997     0.851626    Uiso  ? C
   H443       1.0     0.683843     0.397066     0.858543    Uiso  ? H
   C742       1.0     0.654978     0.421222     0.860066    Uiso  ? C
   C743       1.0     0.644331     0.439219     0.849095    Uiso  ? C
   H444       1.0     0.629016     0.447679     0.856943    Uiso  ? H
   C744       1.0     0.642042     0.408627     0.878787    Uiso  ? C
   C745       1.0     0.363594     0.593018     0.848856    Uiso  ? C
   C746       1.0     0.356808     0.584362     0.826123    Uiso  ? C
   C747       1.0     0.339917     0.595930     0.812647    Uiso  ? C
   H445       1.0     0.332075     0.611592     0.816969    Uiso  ? H
   C748       1.0     0.334512     0.586765     0.790695    Uiso  ? C
   H446       1.0     0.322230     0.595405     0.779400    Uiso  ? H
   C749       1.0     0.344400     0.566717     0.783104    Uiso  ? C
   H447       1.0     0.340696     0.561989     0.765688    Uiso  ? H
   C750       1.0     0.362213     0.556760     0.796022    Uiso  ? C
   C751       1.0     0.367213     0.564418     0.817766    Uiso  ? C
   H448       1.0     0.379606     0.554729     0.827208    Uiso  ? H
   C752       1.0     0.374980     0.535959     0.788093    Uiso  ? C
   C753       1.0     0.399890     0.638743     0.116378    Uiso  ? C
   C754       1.0     0.411653     0.654245     0.132906    Uiso  ? C
   C755       1.0     0.405694     0.678184     0.134783    Uiso  ? C
   H449       1.0     0.391658     0.685899     0.124919    Uiso  ? H
   C756       1.0     0.417492     0.691921     0.150741    Uiso  ? C
   H450       1.0     0.413519     0.710212     0.151388    Uiso  ? H
   C757       1.0     0.435253     0.681670     0.165073    Uiso  ? C
   H451       1.0     0.443492     0.691390     0.178152    Uiso  ? H
   C758       1.0     0.441580     0.658461     0.163022    Uiso  ? C
   C759       1.0     0.429201     0.645310     0.147538    Uiso  ? C
   H452       1.0     0.432606     0.627298     0.147360    Uiso  ? H
   C760       1.0     0.458898     0.647208     0.178511    Uiso  ? C
   C761       1.0     0.516025     0.597668     0.226610    Uiso  ? C
   C762       1.0     0.533670     0.585262     0.241623    Uiso  ? C
   C763       1.0     0.536217     0.591046     0.265086    Uiso  ? C
   H453       1.0     0.523964     0.603435     0.272624    Uiso  ? H
   C764       1.0     0.552089     0.579911     0.278665    Uiso  ? C
   H454       1.0     0.551881     0.584188     0.297209    Uiso  ? H
   C765       1.0     0.566077     0.562196     0.269081    Uiso  ? C
   H455       1.0     0.578942     0.552828     0.280514    Uiso  ? H
   C766       1.0     0.564962     0.556155     0.245780    Uiso  ? C
   C767       1.0     0.549307     0.569139     0.230922    Uiso  ? C
   H456       1.0     0.549319     0.565258     0.212241    Uiso  ? H
   C768       1.0     0.580485     0.538174     0.235795    Uiso  ? C
   O379       1.0     0.596085     0.618091     0.866780    Uiso  ? O
   O380       1.0     0.607699     0.651165     0.882631    Uiso  ? O
   O381       1.0     0.613727     0.597200     0.870922    Uiso  ? O
   O382       1.0     0.646962     0.611880     0.884014    Uiso  ? O
   O383       1.0     0.620350     0.587004     0.122207    Uiso  ? O
   O384       1.0     0.629622     0.621265     0.134246    Uiso  ? O
   O385       1.0     0.577909     0.629561     0.118924    Uiso  ? O
   O386       1.0     0.610885     0.640122     0.132851    Uiso  ? O
   O387       1.0     0.475777     0.594174     0.783522    Uiso  ? O
   O388       1.0     0.491314     0.608918     0.751488    Uiso  ? O
   O389       1.0     0.527402     0.586438     0.788080    Uiso  ? O
   O390       1.0     0.521142     0.605973     0.755548    Uiso  ? O
   O391       1.0     0.516428     0.635646     0.818804    Uiso  ? O
   O392       1.0     0.536904     0.642207     0.787270    Uiso  ? O
   O393       1.0     0.467677     0.613172     0.804246    Uiso  ? O
   O394       1.0     0.476834     0.646646     0.787962    Uiso  ? O
   O395       1.0     0.590092     0.477928     0.786754    Uiso  ? O
   O396       1.0     0.624750     0.465201     0.775232    Uiso  ? O
   O397       1.0     0.627710     0.482573     0.827431    Uiso  ? O
   O398       1.0     0.645052     0.470850     0.794445    Uiso  ? O
   O399       1.0     0.617128     0.533027     0.812147    Uiso  ? O
   O400       1.0     0.651092     0.522227     0.798450    Uiso  ? O
   O401       1.0     0.595907     0.530969     0.793448    Uiso  ? O
   O402       1.0     0.609693     0.517296     0.761147    Uiso  ? O
   O403       1.0     0.384130     0.587293     0.857076    Uiso  ? O
   O404       1.0     0.351398     0.607944     0.859431    Uiso  ? O
   O405       1.0     0.403270     0.608880     0.861336    Uiso  ? O
   O406       1.0     0.384540     0.640492     0.871889    Uiso  ? O
   O407       1.0     0.404403     0.617568     0.114389    Uiso  ? O
   O408       1.0     0.385377     0.647781     0.101701    Uiso  ? O
   O409       1.0     0.369180     0.573587     0.102594    Uiso  ? O
   O410       1.0     0.354438     0.604739     0.117801    Uiso  ? O
   O411       1.0     0.473391     0.632776     0.169939    Uiso  ? O
   O412       1.0     0.457618     0.649388     0.200903    Uiso  ? O
   O413       1.0     0.519476     0.619272     0.187355    Uiso  ? O
   O414       1.0     0.510601     0.653826     0.202322    Uiso  ? O
   O415       1.0     0.517642     0.597632     0.205000    Uiso  ? O
   O416       1.0     0.500440     0.610146     0.235928    Uiso  ? O
   O417       1.0     0.462675     0.594866     0.212439    Uiso  ? O
   O418       1.0     0.452398     0.630803     0.221919    Uiso  ? O
   O419       1.0     0.396853     0.465253     0.798450    Uiso  ? O
   O420       1.0     0.365962     0.481660     0.783820    Uiso  ? O
   O421       1.0     0.418725     0.465746     0.779040    Uiso  ? O
   O422       1.0     0.404758     0.474449     0.744403    Uiso  ? O
   O423       1.0     0.429203     0.516506     0.770439    Uiso  ? O
   O424       1.0     0.398319     0.526293     0.750360    Uiso  ? O
   O425       1.0     0.384179     0.521040     0.801415    Uiso  ? O
   O426       1.0     0.376480     0.532909     0.766221    Uiso  ? O
   O427       1.0     0.563504     0.583426     0.104516    Uiso  ? O
   O428       1.0     0.507358     0.586947     0.837496    Uiso  ? O
   O429       1.0     0.578061     0.496089     0.838114    Uiso  ? O
   O430       1.0     0.424848     0.567746     0.899540    Uiso  ? O
   O431       1.0     0.482923     0.577274     0.164130    Uiso  ? O
   O432       1.0     0.430281     0.503601     0.827268    Uiso  ? O
   Zn85       1.0     0.594784     0.601911     0.100568    Uiso  ? Zn
   Zn86       1.0     0.631471     0.637079     0.102761    Uiso  ? Zn
   Zn87       1.0     0.502988     0.605089     0.807306    Uiso  ? Zn
   Zn88       1.0     0.505480     0.638689     0.767756    Uiso  ? Zn
   Zn89       1.0     0.601862     0.499418     0.810823    Uiso  ? Zn
   Zn90       1.0     0.637431     0.499488     0.773832    Uiso  ? Zn
   Zn91       1.0     0.397275     0.590319     0.892180    Uiso  ? Zn
   Zn92       1.0     0.357960     0.625644     0.890545    Uiso  ? Zn
   Zn93       1.0     0.487097     0.604098     0.187188    Uiso  ? Zn
   Zn94       1.0     0.486047     0.640679     0.224526    Uiso  ? Zn
   Zn95       1.0     0.412476     0.497859     0.796585    Uiso  ? Zn
   Zn96       1.0     0.378026     0.497755     0.754879    Uiso  ? Zn
   H457       1.0     0.492713     0.582139     0.845232    Uiso  ? H
   H458       1.0     0.522369     0.586295     0.844713    Uiso  ? H
   H459       1.0     0.498352     0.421788     0.150952    Uiso  ? H
   H460       1.0     0.508265     0.444440     0.163873    Uiso  ? H
   H461       1.0     0.566850     0.504549     0.156392    Uiso  ? H
   H462       1.0     0.591341     0.490035     0.151204    Uiso  ? H
   H463       1.0     0.570577     0.429129     0.120859    Uiso  ? H
   H464       1.0     0.555464     0.406265     0.110137    Uiso  ? H
   H465       1.0     0.446447     0.505537     0.826571    Uiso  ? H
   H466       1.0     0.422737     0.501279     0.841239    Uiso  ? H
   H467       1.0     0.434320     0.438732     0.105250    Uiso  ? H
   H468       1.0     0.451416     0.415177     0.897166    Uiso  ? H
   H469       1.0     0.492229     0.418286     0.848126    Uiso  ? H
   H470       1.0     0.513440     0.434639     0.836420    Uiso  ? H
   H471       1.0     0.439583     0.576632     0.102400    Uiso  ? H
   H472       1.0     0.424064     0.551305     0.896519    Uiso  ? H
   H473       1.0     0.427808     0.503668     0.154520    Uiso  ? H
   H474       1.0     0.439552     0.517914     0.177003    Uiso  ? H
   H475       1.0     0.492080     0.578649     0.149449    Uiso  ? H
   H476       1.0     0.475018     0.562542     0.167111    Uiso  ? H
   H477       1.0     0.563118     0.489437     0.836126    Uiso  ? H
   H478       1.0     0.581727     0.504758     0.852465    Uiso  ? H
   H479       1.0     0.564796     0.570053     0.114181    Uiso  ? H
   H480       1.0     0.551256     0.584386     0.893875    Uiso  ? H
   H481       1.0     0.538260     0.257228     0.333730    Uiso  ? H
   N1         1.0     0.502532     0.263976     0.346513    Uiso  ? N
   H482       1.0     0.466770     0.272714     0.352456    Uiso  ? H
   C769       1.0     0.521237     0.265724     0.331903    Uiso  ? C
   C770       1.0     0.481400     0.274192     0.341977    Uiso  ? C
   C771       1.0     0.520205     0.280980     0.313645    Uiso  ? C
   C772       1.0     0.480353     0.290985     0.324647    Uiso  ? C
   H483       1.0     0.536391     0.282787     0.301901    Uiso  ? H
   H484       1.0     0.464364     0.300732     0.321674    Uiso  ? H
   C773       1.0     0.499383     0.294765     0.311015    Uiso  ? C
   C774       1.0     0.499777     0.311343     0.291238    Uiso  ? C
   H485       1.0     0.463663     0.306815     0.282887    Uiso  ? H
   H486       1.0     0.535878     0.321853     0.295301    Uiso  ? H
   C775       1.0     0.479044     0.317232     0.279492    Uiso  ? C
   C776       1.0     0.520222     0.323722     0.285685    Uiso  ? C
   C777       1.0     0.477878     0.335141     0.264475    Uiso  ? C
   C778       1.0     0.519352     0.340507     0.268608    Uiso  ? C
   H487       1.0     0.462589     0.337248     0.254723    Uiso  ? H
   N2         1.0     0.498047     0.345950     0.258214    Uiso  ? N
   H488       1.0     0.535333     0.349891     0.265032    Uiso  ? H
   H489       1.0     0.520846     0.771504     0.308737    Uiso  ? H
   N3         1.0     0.513618     0.747252     0.334384    Uiso  ? N
   H490       1.0     0.508502     0.720279     0.359041    Uiso  ? H
   C779       1.0     0.513801     0.754383     0.311908    Uiso  ? C
   C780       1.0     0.508433     0.724906     0.340834    Uiso  ? C
   C781       1.0     0.507635     0.738260     0.294624    Uiso  ? C
   C782       1.0     0.501758     0.708210     0.324086    Uiso  ? C
   H491       1.0     0.510736     0.741323     0.276698    Uiso  ? H
   H492       1.0     0.497945     0.691343     0.328994    Uiso  ? H
   C783       1.0     0.501440     0.715568     0.301026    Uiso  ? C
   C784       1.0     0.495950     0.697850     0.282737    Uiso  ? C
   H493       1.0     0.521976     0.673833     0.295948    Uiso  ? H
   H494       1.0     0.472405     0.718445     0.260898    Uiso  ? H
   C785       1.0     0.507632     0.677032     0.283211    Uiso  ? C
   C786       1.0     0.480846     0.701968     0.263457    Uiso  ? C
   C787       1.0     0.503715     0.659495     0.266726    Uiso  ? C
   C788       1.0     0.477916     0.684952     0.246548    Uiso  ? C
   H495       1.0     0.515407     0.645765     0.265003    Uiso  ? H
   N4         1.0     0.489544     0.664864     0.248937    Uiso  ? N
   H496       1.0     0.465848     0.686822     0.232816    Uiso  ? H
   H497       1.0     0.543935     0.743015     0.660552    Uiso  ? H
   N5         1.0     0.507123     0.741020     0.653583    Uiso  ? N
   H498       1.0     0.470118     0.733951     0.651714    Uiso  ? H
   C789       1.0     0.527594     0.735632     0.665553    Uiso  ? C
   C790       1.0     0.486632     0.729819     0.660332    Uiso  ? C
   C791       1.0     0.527625     0.718753     0.682593    Uiso  ? C
   C792       1.0     0.486820     0.715648     0.680053    Uiso  ? C
   H499       1.0     0.543109     0.714672     0.692453    Uiso  ? H
   H500       1.0     0.470448     0.707530     0.684424    Uiso  ? H
   C793       1.0     0.507310     0.709637     0.690140    Uiso  ? C
   C794       1.0     0.506860     0.691982     0.707742    Uiso  ? C
   H501       1.0     0.478030     0.707731     0.724406    Uiso  ? H
   H502       1.0     0.534734     0.671040     0.694095    Uiso  ? H
   C795       1.0     0.491201     0.694423     0.725830    Uiso  ? C
   C796       1.0     0.522945     0.673800     0.708268    Uiso  ? C
   C797       1.0     0.492248     0.679748     0.744543    Uiso  ? C
   C798       1.0     0.522853     0.658509     0.727410    Uiso  ? C
   H503       1.0     0.479118     0.680338     0.756811    Uiso  ? H
   N6         1.0     0.508324     0.662803     0.745322    Uiso  ? N
   H504       1.0     0.534677     0.643110     0.729379    Uiso  ? H
   H505       1.0     0.523582     0.256211     0.657111    Uiso  ? H
   N7         1.0     0.491506     0.245172     0.670465    Uiso  ? N
   H506       1.0     0.458682     0.237206     0.686360    Uiso  ? H
   C799       1.0     0.512198     0.255875     0.671528    Uiso  ? C
   C800       1.0     0.475706     0.246241     0.688225    Uiso  ? C
   C801       1.0     0.515642     0.272602     0.688891    Uiso  ? C
   C802       1.0     0.479737     0.261696     0.706697    Uiso  ? C
   H507       1.0     0.529436     0.283604     0.688280    Uiso  ? H
   H508       1.0     0.467040     0.264779     0.719810    Uiso  ? H
   C803       1.0     0.500189     0.275202     0.707228    Uiso  ? C
   C804       1.0     0.502980     0.293824     0.724699    Uiso  ? C
   H509       1.0     0.464791     0.303334     0.727284    Uiso  ? H
   H510       1.0     0.538647     0.290618     0.731117    Uiso  ? H
   C805       1.0     0.483099     0.306833     0.732325    Uiso  ? C
   C806       1.0     0.523945     0.301026     0.733470    Uiso  ? C
   C807       1.0     0.485243     0.326644     0.745801    Uiso  ? C
   C808       1.0     0.526594     0.321006     0.744882    Uiso  ? C
   H511       1.0     0.471608     0.338011     0.752484    Uiso  ? H
   N8         1.0     0.507637     0.333473     0.750986    Uiso  ? N
   H512       1.0     0.543307     0.328864     0.747107    Uiso  ? H
   H513       1.0     0.709080     0.367743     0.476482    Uiso  ? H
   N9         1.0     0.725859     0.357743     0.507659    Uiso  ? N
   H514       1.0     0.745452     0.341840     0.534005    Uiso  ? H
   C809       1.0     0.708907     0.355532     0.490944    Uiso  ? C
   C810       1.0     0.729552     0.340954     0.523405    Uiso  ? C
   C811       1.0     0.693440     0.338353     0.491950    Uiso  ? C
   C812       1.0     0.715215     0.321651     0.524711    Uiso  ? C
   H515       1.0     0.678708     0.338378     0.479116    Uiso  ? H
   H516       1.0     0.716333     0.308149     0.538825    Uiso  ? H
   C813       1.0     0.696450     0.320582     0.508808    Uiso  ? C
   C814       1.0     0.678520     0.302957     0.511932    Uiso  ? C
   H517       1.0     0.651006     0.328774     0.514427    Uiso  ? H
   H518       1.0     0.701338     0.273196     0.508664    Uiso  ? H
   C815       1.0     0.655305     0.309786     0.513131    Uiso  ? C
   C816       1.0     0.684071     0.278915     0.510631    Uiso  ? C
   C817       1.0     0.637923     0.293000     0.515098    Uiso  ? C
   C818       1.0     0.666244     0.262096     0.512206    Uiso  ? C
   H519       1.0     0.619530     0.297045     0.517361    Uiso  ? H
   N10        1.0     0.644184     0.269583     0.514946    Uiso  ? N
   H520       1.0     0.670763     0.243463     0.510652    Uiso  ? H
   H521       1.0     0.739630     0.649295     0.475470    Uiso  ? H
   N11        1.0     0.751236     0.661032     0.507484    Uiso  ? N
   H522       1.0     0.759803     0.674053     0.539496    Uiso  ? H
   C819       1.0     0.737852     0.662459     0.488283    Uiso  ? C
   C820       1.0     0.748274     0.676264     0.525091    Uiso  ? C
   C821       1.0     0.721431     0.679859     0.485664    Uiso  ? C
   C822       1.0     0.732613     0.694264     0.523316    Uiso  ? C
   H523       1.0     0.709760     0.679046     0.470860    Uiso  ? H
   H524       1.0     0.731158     0.707554     0.535154    Uiso  ? H
   C823       1.0     0.717514     0.694992     0.503918    Uiso  ? C
   C824       1.0     0.698634     0.712667     0.502557    Uiso  ? C
   H525       1.0     0.721554     0.740240     0.505927    Uiso  ? H
   H526       1.0     0.669234     0.689426     0.493199    Uiso  ? H
   C825       1.0     0.703712     0.736340     0.506306    Uiso  ? C
   C826       1.0     0.675009     0.706502     0.497048    Uiso  ? C
   C827       1.0     0.687545     0.752838     0.504489    Uiso  ? C
   C828       1.0     0.658634     0.724921     0.496842    Uiso  ? C
   H527       1.0     0.691540     0.771087     0.505986    Uiso  ? H
   N12        1.0     0.665658     0.747015     0.499282    Uiso  ? N
   H528       1.0     0.640680     0.720072     0.492223    Uiso  ? H
   H529       1.0     0.274581     0.353554     0.497432    Uiso  ? H
   N13        1.0     0.249282     0.328082     0.487209    Uiso  ? N
   H530       1.0     0.228488     0.299635     0.476770    Uiso  ? H
   C829       1.0     0.270406     0.335632     0.492019    Uiso  ? C
   C830       1.0     0.244754     0.304980     0.483638    Uiso  ? C
   C831       1.0     0.288241     0.319879     0.495316    Uiso  ? C
   C832       1.0     0.262233     0.288303     0.485828    Uiso  ? C
   H531       1.0     0.303748     0.325898     0.501496    Uiso  ? H
   H532       1.0     0.257514     0.269944     0.481911    Uiso  ? H
   C833       1.0     0.284055     0.296125     0.492771    Uiso  ? C
   C834       1.0     0.303869     0.279682     0.495193    Uiso  ? C
   H533       1.0     0.329850     0.303978     0.481756    Uiso  ? H
   H534       1.0     0.283277     0.250576     0.511258    Uiso  ? H
   C835       1.0     0.326620     0.286976     0.488650    Uiso  ? C
   C836       1.0     0.300166     0.256904     0.504636    Uiso  ? C
   C837       1.0     0.345256     0.271290     0.492052    Uiso  ? C
   C838       1.0     0.319720     0.242264     0.505929    Uiso  ? C
   H535       1.0     0.362025     0.275887     0.485749    Uiso  ? H
   N14        1.0     0.340696     0.249219     0.500183    Uiso  ? N
   H536       1.0     0.315981     0.225288     0.511993    Uiso  ? H
   H537       1.0     0.370137     0.716573     0.461029    Uiso  ? H
   N15        1.0     0.355125     0.737060     0.488555    Uiso  ? N
   H538       1.0     0.336758     0.753899     0.515956    Uiso  ? H
   C839       1.0     0.357839     0.717070     0.475749    Uiso  ? C
   C840       1.0     0.338786     0.738840     0.504866    Uiso  ? C
   C841       1.0     0.339990     0.699817     0.476033    Uiso  ? C
   C842       1.0     0.321710     0.721478     0.507965    Uiso  ? C
   H539       1.0     0.341765     0.684937     0.465226    Uiso  ? H
   H540       1.0     0.308668     0.722982     0.522071    Uiso  ? H
   C843       1.0     0.322642     0.701004     0.494174    Uiso  ? C
   C844       1.0     0.305109     0.683103     0.496617    Uiso  ? C
   H541       1.0     0.299602     0.684656     0.534514    Uiso  ? H
   H542       1.0     0.302076     0.679435     0.460138    Uiso  ? H
   C845       1.0     0.295663     0.676480     0.518432    Uiso  ? C
   C846       1.0     0.297696     0.673414     0.475982    Uiso  ? C
   C847       1.0     0.280825     0.656333     0.518008    Uiso  ? C
   C848       1.0     0.282094     0.653757     0.477126    Uiso  ? C
   H543       1.0     0.276221     0.650213     0.534789    Uiso  ? H
   N16        1.0     0.275340     0.644762     0.497830    Uiso  ? N
   H544       1.0     0.277223     0.645835     0.460927    Uiso  ? H
   H545       1.0     0.759923     0.524113     0.316308    Uiso  ? H
   N17        1.0     0.736146     0.521938     0.345128    Uiso  ? N
   H546       1.0     0.707779     0.519134     0.369820    Uiso  ? H
   C849       1.0     0.741613     0.522002     0.321553    Uiso  ? C
   C850       1.0     0.713092     0.520099     0.351934    Uiso  ? C
   C851       1.0     0.723530     0.521044     0.305058    Uiso  ? C
   C852       1.0     0.695912     0.518430     0.335195    Uiso  ? C
   H547       1.0     0.728080     0.522115     0.286292    Uiso  ? H
   H548       1.0     0.677691     0.513642     0.340332    Uiso  ? H
   C853       1.0     0.700507     0.517341     0.311022    Uiso  ? C
   C854       1.0     0.681385     0.514591     0.294453    Uiso  ? C
   H549       1.0     0.655566     0.537687     0.312643    Uiso  ? H
   H550       1.0     0.699267     0.489788     0.274410    Uiso  ? H
   C855       1.0     0.660405     0.525717     0.298205    Uiso  ? C
   C856       1.0     0.683762     0.498637     0.276642    Uiso  ? C
   C857       1.0     0.642391     0.521862     0.282245    Uiso  ? C
   C858       1.0     0.665781     0.495616     0.260769    Uiso  ? C
   H551       1.0     0.625549     0.530757     0.284288    Uiso  ? H
   N18        1.0     0.646369     0.508366     0.262606    Uiso  ? N
   H552       1.0     0.669075     0.483949     0.246176    Uiso  ? H
   H553       1.0     0.277804     0.494506     0.364861    Uiso  ? H
   N19        1.0     0.253446     0.495700     0.337977    Uiso  ? N
   H554       1.0     0.231193     0.494383     0.308007    Uiso  ? H
   C859       1.0     0.275545     0.496392     0.346251    Uiso  ? C
   C860       1.0     0.248499     0.494039     0.315029    Uiso  ? C
   C861       1.0     0.293855     0.495040     0.330349    Uiso  ? C
   C862       1.0     0.266513     0.489893     0.299591    Uiso  ? C
   H555       1.0     0.311431     0.494722     0.337690    Uiso  ? H
   H556       1.0     0.263498     0.485246     0.281810    Uiso  ? H
   C863       1.0     0.289499     0.492644     0.306017    Uiso  ? C
   C864       1.0     0.308760     0.493305     0.288967    Uiso  ? C
   H557       1.0     0.307547     0.458156     0.281941    Uiso  ? H
   H558       1.0     0.311774     0.530487     0.290697    Uiso  ? H
   C865       1.0     0.316172     0.473860     0.276813    Uiso  ? C
   C866       1.0     0.317967     0.514705     0.283130    Uiso  ? C
   C867       1.0     0.331947     0.475298     0.259649    Uiso  ? C
   C868       1.0     0.335474     0.515473     0.266493    Uiso  ? C
   H559       1.0     0.338165     0.460364     0.250013    Uiso  ? H
   N20        1.0     0.341521     0.495966     0.255263    Uiso  ? N
   H560       1.0     0.342156     0.532608     0.261997    Uiso  ? H
   H561       1.0     0.278267     0.514554     0.634692    Uiso  ? H
   N21        1.0     0.265376     0.483087     0.650695    Uiso  ? N
   H562       1.0     0.259483     0.451836     0.669650    Uiso  ? H
   C869       1.0     0.279668     0.501952     0.649002    Uiso  ? C
   C870       1.0     0.269001     0.467461     0.667484    Uiso  ? C
   C871       1.0     0.297761     0.504987     0.665095    Uiso  ? C
   C872       1.0     0.286147     0.470080     0.683481    Uiso  ? C
   H563       1.0     0.309064     0.519219     0.663292    Uiso  ? H
   H564       1.0     0.287358     0.458495     0.697399    Uiso  ? H
   C873       1.0     0.300582     0.489174     0.681960    Uiso  ? C
   C874       1.0     0.319417     0.491559     0.699296    Uiso  ? C
   H565       1.0     0.339471     0.459942     0.689457    Uiso  ? H
   H566       1.0     0.305974     0.523232     0.714529    Uiso  ? H
   C875       1.0     0.337220     0.474924     0.700111    Uiso  ? C
   C876       1.0     0.319225     0.509937     0.715425    Uiso  ? C
   C877       1.0     0.354528     0.477255     0.716207    Uiso  ? C
   C878       1.0     0.335201     0.509791     0.733694    Uiso  ? C
   H567       1.0     0.369386     0.465959     0.714706    Uiso  ? H
   N22        1.0     0.353260     0.494509     0.732675    Uiso  ? N
   H568       1.0     0.335099     0.522412     0.746804    Uiso  ? H
   H569       1.0     0.737616     0.535665     0.654107    Uiso  ? H
   N23        1.0     0.752097     0.504810     0.666955    Uiso  ? N
   H570       1.0     0.765025     0.473423     0.681943    Uiso  ? H
   C879       1.0     0.737232     0.522286     0.668377    Uiso  ? C
   C880       1.0     0.752501     0.487836     0.683865    Uiso  ? C
   C881       1.0     0.718738     0.521565     0.684164    Uiso  ? C
   C882       1.0     0.736800     0.488663     0.701301    Uiso  ? C
   H571       1.0     0.704923     0.534611     0.682330    Uiso  ? H
   H572       1.0     0.736698     0.473821     0.712742    Uiso  ? H
   C883       1.0     0.719487     0.505549     0.702368    Uiso  ? C
   C884       1.0     0.698068     0.503405     0.718948    Uiso  ? C
   H573       1.0     0.692402     0.465620     0.716201    Uiso  ? H
   H574       1.0     0.695030     0.540860     0.725367    Uiso  ? H
   C885       1.0     0.686348     0.482355     0.722398    Uiso  ? C
   C886       1.0     0.688530     0.523691     0.728422    Uiso  ? C
   C887       1.0     0.668288     0.481099     0.738318    Uiso  ? C
   C888       1.0     0.670687     0.522039     0.743436    Uiso  ? C
   H575       1.0     0.658516     0.465881     0.742953    Uiso  ? H
   N24        1.0     0.661793     0.501110     0.748457    Uiso  ? N
   H576       1.0     0.663829     0.537129     0.752034    Uiso  ? H
   H577       1.0     0.768549     0.715350     0.111433    Uiso  ? H
   N25        1.0     0.745400     0.740686     0.116412    Uiso  ? N
   H578       1.0     0.717257     0.763105     0.119409    Uiso  ? H
   C889       1.0     0.751274     0.718134     0.112660    Uiso  ? C
   C890       1.0     0.723464     0.746153     0.117012    Uiso  ? C
   C891       1.0     0.734867     0.700643     0.108712    Uiso  ? C
   C892       1.0     0.706122     0.729518     0.112261    Uiso  ? C
   H579       1.0     0.740308     0.683072     0.105328    Uiso  ? H
   H580       1.0     0.688378     0.735044     0.112424    Uiso  ? H
   C893       1.0     0.711611     0.706611     0.109094    Uiso  ? C
   C894       1.0     0.693305     0.690013     0.106364    Uiso  ? C
   H581       1.0     0.692693     0.684520     0.143473    Uiso  ? H
   H582       1.0     0.692421     0.690542     0.870799    Uiso  ? H
   C895       1.0     0.683551     0.681113     0.126511    Uiso  ? C
   C896       1.0     0.683962     0.683845     0.885657    Uiso  ? C
   C897       1.0     0.665563     0.664880     0.124976    Uiso  ? C
   C898       1.0     0.663987     0.669722     0.884727    Uiso  ? C
   H583       1.0     0.660111     0.655753     0.140164    Uiso  ? H
   N26        1.0     0.655786     0.660506     0.103834    Uiso  ? N
   H584       1.0     0.656206     0.665580     0.867640    Uiso  ? H
   H585       1.0     0.731615     0.251285     0.861723    Uiso  ? H
   N27        1.0     0.744575     0.254941     0.895891    Uiso  ? N
   H586       1.0     0.753930     0.265876     0.130009    Uiso  ? H
   C899       1.0     0.730205     0.260682     0.877521    Uiso  ? C
   C900       1.0     0.744137     0.268457     0.115384    Uiso  ? C
   C901       1.0     0.712954     0.277757     0.880062    Uiso  ? C
   C902       1.0     0.728020     0.285976     0.118716    Uiso  ? C
   H587       1.0     0.701907     0.281693     0.865777    Uiso  ? H
   H588       1.0     0.728689     0.295042     0.133701    Uiso  ? H
   C903       1.0     0.712161     0.290686     0.101359    Uiso  ? C
   C904       1.0     0.696321     0.309840     0.103650    Uiso  ? C
   H589       1.0     0.686637     0.300407     0.137453    Uiso  ? H
   H590       1.0     0.704563     0.324654     0.870682    Uiso  ? H
   C905       1.0     0.681653     0.310955     0.122326    Uiso  ? C
   C906       1.0     0.693077     0.324372     0.885505    Uiso  ? C
   C907       1.0     0.665705     0.328654     0.124194    Uiso  ? C
   C908       1.0     0.675443     0.340502     0.887026    Uiso  ? C
   H591       1.0     0.657372     0.331886     0.141210    Uiso  ? H
   N28        1.0     0.662372     0.343167     0.106128    Uiso  ? N
   H592       1.0     0.672654     0.353462     0.873061    Uiso  ? H
   H593       1.0     0.227323     0.710004     0.105351    Uiso  ? H
   N29        1.0     0.253025     0.737648     0.102352    Uiso  ? N
   H594       1.0     0.281773     0.759814     0.100000    Uiso  ? H
   C909       1.0     0.245435     0.715255     0.102828    Uiso  ? C
   C910       1.0     0.275770     0.741174     0.899370    Uiso  ? C
   C911       1.0     0.260452     0.697220     0.101237    Uiso  ? C
   C912       1.0     0.292166     0.723625     0.896249    Uiso  ? C
   H595       1.0     0.253088     0.679852     0.101611    Uiso  ? H
   H596       1.0     0.310398     0.728355     0.896870    Uiso  ? H
   C913       1.0     0.283676     0.700881     0.898159    Uiso  ? C
   C914       1.0     0.299684     0.680784     0.895405    Uiso  ? C
   H597       1.0     0.292308     0.668366     0.128611    Uiso  ? H
   H598       1.0     0.308305     0.690451     0.859631    Uiso  ? H
   C915       1.0     0.300986     0.664805     0.111419    Uiso  ? C
   C916       1.0     0.313488     0.679912     0.875597    Uiso  ? C
   C917       1.0     0.318360     0.648883     0.110165    Uiso  ? C
   C918       1.0     0.328980     0.662073     0.873344    Uiso  ? C
   H599       1.0     0.323620     0.637902     0.125217    Uiso  ? H
   N30        1.0     0.331884     0.647686     0.891690    Uiso  ? N
   H600       1.0     0.339090     0.659385     0.858341    Uiso  ? H
   H601       1.0     0.251372     0.271238     0.126923    Uiso  ? H
   N31        1.0     0.252663     0.266773     0.891481    Uiso  ? N
   H602       1.0     0.260115     0.259997     0.857744    Uiso  ? H
   C919       1.0     0.259326     0.276844     0.111650    Uiso  ? C
   C920       1.0     0.263586     0.271423     0.871971    Uiso  ? C
   C921       1.0     0.278019     0.292405     0.112316    Uiso  ? C
   C922       1.0     0.282923     0.286342     0.871939    Uiso  ? C
   H603       1.0     0.283596     0.299310     0.129964    Uiso  ? H
   H604       1.0     0.292974     0.286682     0.856483    Uiso  ? H
   C923       1.0     0.289405     0.297371     0.892663    Uiso  ? C
   C924       1.0     0.307819     0.314378     0.892675    Uiso  ? C
   H605       1.0     0.298357     0.330217     0.859071    Uiso  ? H
   H606       1.0     0.322921     0.306213     0.127268    Uiso  ? H
   C925       1.0     0.309698     0.329430     0.874086    Uiso  ? C
   C926       1.0     0.322414     0.317563     0.112422    Uiso  ? C
   C927       1.0     0.326262     0.347173     0.875275    Uiso  ? C
   C928       1.0     0.340917     0.332686     0.110852    Uiso  ? C
   H607       1.0     0.327725     0.358968     0.860069    Uiso  ? H
   N32        1.0     0.342095     0.346949     0.892725    Uiso  ? N
   H608       1.0     0.351355     0.334834     0.125223    Uiso  ? H
   H609       1.0     0.728231     0.115935     0.754559    Uiso  ? H
   N33        1.0     0.740791     0.880605     0.742553    Uiso  ? N
   H610       1.0     0.751450     0.849442     0.728509    Uiso  ? H
   C929       1.0     0.728635     0.104349     0.739697    Uiso  ? C
   C930       1.0     0.740383     0.864098     0.726237    Uiso  ? C
   C931       1.0     0.715853     0.107441     0.719329    Uiso  ? C
   C932       1.0     0.726004     0.865420     0.707285    Uiso  ? C
   H611       1.0     0.703774     0.123018     0.718654    Uiso  ? H
   H612       1.0     0.727196     0.852001     0.693943    Uiso  ? H
   C933       1.0     0.712480     0.884907     0.704226    Uiso  ? C
   C934       1.0     0.694475     0.886921     0.687232    Uiso  ? C
   H613       1.0     0.678898     0.852573     0.691970    Uiso  ? H
   H614       1.0     0.705500     0.124637     0.677365    Uiso  ? H
   C935       1.0     0.679485     0.869034     0.682979    Uiso  ? C
   C936       1.0     0.693236     0.111361     0.674951    Uiso  ? C
   C937       1.0     0.662853     0.871665     0.666012    Uiso  ? C
   C938       1.0     0.675014     0.113637     0.658969    Uiso  ? C
   H615       1.0     0.651817     0.857018     0.660529    Uiso  ? H
   N34        1.0     0.658942     0.892269     0.655479    Uiso  ? N
   H616       1.0     0.672149     0.131864     0.650818    Uiso  ? H
   H617       1.0     0.232112     0.873710     0.718308    Uiso  ? H
   N35        1.0     0.254170     0.893030     0.740015    Uiso  ? N
   H618       1.0     0.281883     0.114211     0.759329    Uiso  ? H
   C939       1.0     0.248634     0.883631     0.718526    Uiso  ? C
   C940       1.0     0.276977     0.106487     0.742334    Uiso  ? C
   C941       1.0     0.263174     0.882887     0.700021    Uiso  ? C
   C942       1.0     0.291732     0.106720     0.724078    Uiso  ? C
   H619       1.0     0.256119     0.873034     0.685782    Uiso  ? H
   H620       1.0     0.308678     0.114795     0.723308    Uiso  ? H
   C943       1.0     0.284879     0.892871     0.702417    Uiso  ? C
   C944       1.0     0.302528     0.889783     0.684041    Uiso  ? C
   H621       1.0     0.285302     0.111318     0.657868    Uiso  ? H
   H622       1.0     0.325320     0.872272     0.706564    Uiso  ? H
   C945       1.0     0.301109     0.102369     0.661865    Uiso  ? C
   C946       1.0     0.322116     0.875779     0.688533    Uiso  ? C
   C947       1.0     0.315902     0.893091     0.644977    Uiso  ? C
   C948       1.0     0.338518     0.872923     0.671351    Uiso  ? C
   H623       1.0     0.314019     0.106048     0.628697    Uiso  ? H
   N36        1.0     0.334670     0.881298     0.649557    Uiso  ? N
   H624       1.0     0.354730     0.864022     0.676334    Uiso  ? H
   H625       1.0     0.242923     0.127161     0.277511    Uiso  ? H
   N37        1.0     0.265392     0.114120     0.252849    Uiso  ? N
   H626       1.0     0.288232     0.896321     0.229055    Uiso  ? H
   C949       1.0     0.260115     0.120782     0.274553    Uiso  ? C
   C950       1.0     0.286147     0.106037     0.246772    Uiso  ? C
   C951       1.0     0.276965     0.118729     0.292036    Uiso  ? C
   C952       1.0     0.303068     0.102722     0.263898    Uiso  ? C
   H627       1.0     0.273253     0.126416     0.308411    Uiso  ? H
   H628       1.0     0.319236     0.892849     0.257061    Uiso  ? H
   C953       1.0     0.299000     0.108940     0.287211    Uiso  ? C
   C954       1.0     0.317050     0.106448     0.306048    Uiso  ? C
   H629       1.0     0.344346     0.118790     0.283141    Uiso  ? H
   H630       1.0     0.293742     0.890689     0.333669    Uiso  ? H
   C955       1.0     0.340076     0.109822     0.300200    Uiso  ? C
   C956       1.0     0.311400     0.895364     0.328603    Uiso  ? C
   C957       1.0     0.358109     0.106187     0.315596    Uiso  ? C
   C958       1.0     0.329876     0.892196     0.344375    Uiso  ? C
   H631       1.0     0.375701     0.109577     0.309981    Uiso  ? H
   N38        1.0     0.352621     0.896132     0.337553    Uiso  ? N
   H632       1.0     0.326829     0.885451     0.361287    Uiso  ? H
   H633       1.0     0.744988     0.874919     0.259283    Uiso  ? H
   N39        1.0     0.746011     0.114559     0.260731    Uiso  ? N
   H634       1.0     0.746577     0.151326     0.263483    Uiso  ? H
   C959       1.0     0.739926     0.889876     0.269014    Uiso  ? C
   C960       1.0     0.739821     0.135164     0.271087    Uiso  ? C
   C961       1.0     0.725926     0.889086     0.288884    Uiso  ? C
   C962       1.0     0.724046     0.135042     0.289110    Uiso  ? C
   H635       1.0     0.719829     0.872703     0.296384    Uiso  ? H
   H636       1.0     0.717917     0.150749     0.295844    Uiso  ? H
   C963       1.0     0.718653     0.113834     0.299019    Uiso  ? C
   C964       1.0     0.702528     0.113386     0.318103    Uiso  ? C
   H637       1.0     0.720388     0.136784     0.342351    Uiso  ? H
   H638       1.0     0.676231     0.890553     0.299986    Uiso  ? H
   C965       1.0     0.705265     0.126666     0.338873    Uiso  ? C
   C966       1.0     0.681897     0.102155     0.316723    Uiso  ? C
   C967       1.0     0.688082     0.127115     0.355778    Uiso  ? C
   C968       1.0     0.665179     0.898080     0.333204    Uiso  ? C
   H639       1.0     0.689582     0.136219     0.372197    Uiso  ? H
   N40        1.0     0.668049     0.114684     0.352707    Uiso  ? N
   H640       1.0     0.648829     0.889144     0.330379    Uiso  ? H
   H641       1.0     0.895296     0.267044     0.756284    Uiso  ? H
   N41        1.0     0.895596     0.242841     0.728351    Uiso  ? N
   H642       1.0     0.897556     0.222386     0.696846    Uiso  ? H
   C969       1.0     0.895613     0.264327     0.736830    Uiso  ? C
   C970       1.0     0.895032     0.238773     0.704919    Uiso  ? C
   C971       1.0     0.895591     0.283281     0.722034    Uiso  ? C
   C972       1.0     0.894461     0.258117     0.689721    Uiso  ? C
   H643       1.0     0.897535     0.300442     0.730192    Uiso  ? H
   H644       1.0     0.894231     0.254874     0.671078    Uiso  ? H
   C973       1.0     0.897393     0.279585     0.697938    Uiso  ? C
   C974       1.0     0.896452     0.299424     0.682360    Uiso  ? C
   H645       1.0     0.130971     0.291891     0.663078    Uiso  ? H
   H646       1.0     0.864059     0.314035     0.696953    Uiso  ? H
   C975       1.0     0.116988     0.302668     0.664834    Uiso  ? C
   C976       1.0     0.878426     0.315755     0.684553    Uiso  ? C
   C977       1.0     0.113559     0.320686     0.650019    Uiso  ? C
   C978       1.0     0.875814     0.331827     0.668467    Uiso  ? C
   H647       1.0     0.127049     0.325390     0.637754    Uiso  ? H
   N42        1.0     0.890565     0.333976     0.650477    Uiso  ? N
   H648       1.0     0.860469     0.343058     0.669953    Uiso  ? H
   H649       1.0     0.134401     0.747868     0.736944    Uiso  ? H
   N43        1.0     0.102444     0.733047     0.749188    Uiso  ? N
   H650       1.0     0.866399     0.716250     0.754714    Uiso  ? H
   C979       1.0     0.121232     0.734558     0.734424    Uiso  ? C
   C980       1.0     0.882575     0.716274     0.745327    Uiso  ? C
   C981       1.0     0.123888     0.717046     0.717382    Uiso  ? C
   C982       1.0     0.884558     0.699712     0.726477    Uiso  ? C
   H651       1.0     0.138842     0.716866     0.707630    Uiso  ? H
   H652       1.0     0.869646     0.689539     0.721643    Uiso  ? H
   C983       1.0     0.107259     0.700691     0.712242    Uiso  ? C
   C984       1.0     0.109244     0.683224     0.693479    Uiso  ? C
   H653       1.0     0.895399     0.655451     0.715289    Uiso  ? H
   H654       1.0     0.116399     0.709210     0.667439    Uiso  ? H
   C985       1.0     0.105102     0.659677     0.697986    Uiso  ? C
   C986       1.0     0.113745     0.690160     0.670948    Uiso  ? C
   C987       1.0     0.108114     0.643200     0.679865    Uiso  ? C
   C988       1.0     0.115423     0.673229     0.653285    Uiso  ? C
   H655       1.0     0.107324     0.624662     0.683252    Uiso  ? H
   N44        1.0     0.113702     0.650272     0.657751    Uiso  ? N
   H656       1.0     0.118737     0.680066     0.635225    Uiso  ? H
   H657       1.0     0.127002     0.736106     0.247309    Uiso  ? H
   N45        1.0     0.113650     0.758738     0.272622    Uiso  ? N
   H658       1.0     0.895319     0.777918     0.301221    Uiso  ? H
   C989       1.0     0.123013     0.738018     0.265638    Uiso  ? C
   C990       1.0     0.105504     0.762020     0.294183    Uiso  ? C
   C991       1.0     0.126459     0.720587     0.282252    Uiso  ? C
   C992       1.0     0.108163     0.744494     0.310955    Uiso  ? C
   H659       1.0     0.130922     0.703357     0.275872    Uiso  ? H
   H660       1.0     0.103736     0.748459     0.328526    Uiso  ? H
   C993       1.0     0.117806     0.723023     0.305418    Uiso  ? C
   C994       1.0     0.117101     0.704407     0.322007    Uiso  ? C
   H661       1.0     0.881726     0.716009     0.338605    Uiso  ? H
   H662       1.0     0.146528     0.687457     0.309571    Uiso  ? H
   C995       1.0     0.895724     0.703746     0.338577    Uiso  ? C
   C996       1.0     0.133766     0.687144     0.322297    Uiso  ? C
   C997       1.0     0.895795     0.685855     0.354363    Uiso  ? C
   C998       1.0     0.131239     0.668475     0.336917    Uiso  ? C
   H663       1.0     0.880260     0.683906     0.364564    Uiso  ? H
   N46        1.0     0.113945     0.667867     0.352804    Uiso  ? N
   H664       1.0     0.142755     0.653575     0.334830    Uiso  ? H
   H665       1.0     0.114764     0.246669     0.276143    Uiso  ? H
   N47        1.0     0.895935     0.267470     0.250372    Uiso  ? N
   H666       1.0     0.883466     0.292500     0.227000    Uiso  ? H
   C999       1.0     0.107596     0.263118     0.271640    Uiso  ? C
   C1000      1.0     0.887720     0.288516     0.244619    Uiso  ? C
   C1001      1.0     0.105712     0.279675     0.289339    Uiso  ? C
   C1002      1.0     0.886181     0.305810     0.261227    Uiso  ? C
   H667       1.0     0.111650     0.276780     0.306835    Uiso  ? H
   H668       1.0     0.878521     0.322580     0.255936    Uiso  ? H
   C1003      1.0     0.892636     0.301544     0.284002    Uiso  ? C
   C1004      1.0     0.887921     0.318926     0.302955    Uiso  ? C
   H669       1.0     0.850547     0.319779     0.298795    Uiso  ? H
   H670       1.0     0.126978     0.321609     0.310095    Uiso  ? H
   C1005      1.0     0.865123     0.326222     0.308951    Uiso  ? C
   C1006      1.0     0.109823     0.328101     0.315150    Uiso  ? C
   C1007      1.0     0.861623     0.341537     0.327539    Uiso  ? C
   C1008      1.0     0.105975     0.342976     0.334586    Uiso  ? C
   H671       1.0     0.843921     0.346841     0.331922    Uiso  ? H
   N48        1.0     0.880324     0.350668     0.339007    Uiso  ? N
   H672       1.0     0.120914     0.349971     0.344024    Uiso  ? H
