
#======================================================================
# CRYSTAL DATA
#----------------------------------------------------------------------
data_VESTA_phase_1

_chemical_name_common                  ' Atoms. Timestep: 0'
_cell_length_a                         44.334873
_cell_length_b                         44.334873
_cell_length_c                         44.334873
_cell_angle_alpha                      90.000000
_cell_angle_beta                       90.000000
_cell_angle_gamma                      90.000000
_cell_volume                           1.000000
_space_group_name_H-M_alt              'P 1'
_space_group_IT_number                 1

loop_
_space_group_symop_operation_xyz
   'x, y, z'

loop_
   _atom_site_label
   _atom_site_occupancy
   _atom_site_fract_x
   _atom_site_fract_y
   _atom_site_fract_z
   _atom_site_adp_type
   _atom_site_U_iso_or_equiv
   _atom_site_type_symbol
   C1         1.0     0.785545     0.277451     0.130945    Uiso  ? C
   C2         1.0     0.753412     0.268589     0.124713    Uiso  ? C
   C3         1.0     0.735796     0.283489     0.103030    Uiso  ? C
   H1         1.0     0.745732     0.300230     0.890118    Uiso  ? H
   C4         1.0     0.706668     0.272378     0.896675    Uiso  ? C
   H2         1.0     0.693856     0.280237     0.877165    Uiso  ? H
   C5         1.0     0.695760     0.249051     0.113070    Uiso  ? C
   H3         1.0     0.673157     0.241504     0.110423    Uiso  ? H
   C6         1.0     0.711407     0.233729     0.134440    Uiso  ? C
   C7         1.0     0.740853     0.243282     0.140085    Uiso  ? C
   H4         1.0     0.753665     0.233549     0.157861    Uiso  ? H
   C8         1.0     0.702427     0.203685     0.147510    Uiso  ? C
   C9         1.0     0.857689     0.272884     0.195634    Uiso  ? C
   C10        1.0     0.865901     0.262910     0.226122    Uiso  ? C
   C11        1.0     0.874989     0.282982     0.249199    Uiso  ? C
   H5         1.0     0.876620     0.307324     0.244054    Uiso  ? H
   C12        1.0     0.885545     0.271713     0.277612    Uiso  ? C
   H6         1.0     0.893440     0.285461     0.295566    Uiso  ? H
   C13        1.0     0.884255     0.241222     0.283361    Uiso  ? C
   H7         1.0     0.891538     0.234478     0.305791    Uiso  ? H
   C14        1.0     0.876532     0.221091     0.260174    Uiso  ? C
   C15        1.0     0.867988     0.232247     0.232013    Uiso  ? C
   H8         1.0     0.862369     0.217049     0.214082    Uiso  ? H
   C16        1.0     0.871387     0.188971     0.267886    Uiso  ? C
   C17        1.0     0.104007     0.308589     0.148385    Uiso  ? C
   C18        1.0     0.135769     0.319833     0.151243    Uiso  ? C
   C19        1.0     0.142146     0.350536     0.156713    Uiso  ? C
   H9         1.0     0.124273     0.366158     0.162656    Uiso  ? H
   C20        1.0     0.172001     0.360348     0.157929    Uiso  ? C
   H10        1.0     0.174374     0.381211     0.164715    Uiso  ? H
   C21        1.0     0.196073     0.339499     0.157359    Uiso  ? C
   H11        1.0     0.219478     0.348558     0.159594    Uiso  ? H
   C22        1.0     0.190510     0.309970     0.152118    Uiso  ? C
   C23        1.0     0.160469     0.299820     0.150113    Uiso  ? C
   H12        1.0     0.156185     0.275929     0.148238    Uiso  ? H
   C24        1.0     0.214671     0.287256     0.151479    Uiso  ? C
   C25        1.0     0.859548     0.317934     0.891386    Uiso  ? C
   C26        1.0     0.868728     0.331907     0.863692    Uiso  ? C
   C27        1.0     0.864178     0.362556     0.858119    Uiso  ? C
   H13        1.0     0.853735     0.376574     0.875931    Uiso  ? H
   C28        1.0     0.873606     0.375496     0.831063    Uiso  ? C
   H14        1.0     0.865622     0.398342     0.824166    Uiso  ? H
   C29        1.0     0.888128     0.357803     0.809117    Uiso  ? C
   H15        1.0     0.892684     0.368179     0.787533    Uiso  ? H
   C30        1.0     0.891367     0.326697     0.814525    Uiso  ? C
   C31        1.0     0.882257     0.314961     0.842668    Uiso  ? C
   H16        1.0     0.887214     0.292029     0.847784    Uiso  ? H
   C32        1.0     0.109729     0.306695     0.792038    Uiso  ? C
   C33        1.0     0.667782     0.893228     0.130556    Uiso  ? C
   C34        1.0     0.661780     0.861558     0.123080    Uiso  ? C
   C35        1.0     0.635848     0.846721     0.135308    Uiso  ? C
   H17        1.0     0.619064     0.858781     0.149303    Uiso  ? H
   C36        1.0     0.631711     0.815720     0.130073    Uiso  ? C
   H18        1.0     0.612785     0.803200     0.139160    Uiso  ? H
   C37        1.0     0.653360     0.799207     0.114565    Uiso  ? C
   H19        1.0     0.652401     0.775714     0.115648    Uiso  ? H
   C38        1.0     0.680197     0.812387     0.102640    Uiso  ? C
   C39        1.0     0.684385     0.844555     0.105657    Uiso  ? C
   H20        1.0     0.704243     0.854004     0.896436    Uiso  ? H
   C40        1.0     0.701631     0.792646     0.885391    Uiso  ? C
   C41        1.0     0.719752     0.120068     0.193175    Uiso  ? C
   C42        1.0     0.729756     0.113517     0.224266    Uiso  ? C
   C43        1.0     0.708743     0.107992     0.247811    Uiso  ? C
   H21        1.0     0.684755     0.107299     0.241884    Uiso  ? H
   C44        1.0     0.718104     0.897056     0.277161    Uiso  ? C
   H22        1.0     0.702179     0.891316     0.295077    Uiso  ? H
   C45        1.0     0.748761     0.107681     0.284922    Uiso  ? C
   H23        1.0     0.755162     0.110516     0.307994    Uiso  ? H
   C46        1.0     0.770836     0.112003     0.261888    Uiso  ? C
   C47        1.0     0.760540     0.111538     0.231431    Uiso  ? C
   H24        1.0     0.776583     0.116268     0.212537    Uiso  ? H
   C48        1.0     0.802604     0.116824     0.268438    Uiso  ? C
   C49        1.0     0.681004     0.155822     0.894808    Uiso  ? C
   C50        1.0     0.677143     0.168401     0.863442    Uiso  ? C
   C51        1.0     0.651422     0.183510     0.854938    Uiso  ? C
   H25        1.0     0.632717     0.187275     0.869951    Uiso  ? H
   C52        1.0     0.648878     0.193623     0.825614    Uiso  ? C
   H26        1.0     0.631632     0.209005     0.818186    Uiso  ? H
   C53        1.0     0.671084     0.188563     0.803469    Uiso  ? C
   H27        1.0     0.670026     0.196627     0.781236    Uiso  ? H
   C54        1.0     0.696286     0.170863     0.811568    Uiso  ? C
   C55        1.0     0.699743     0.161783     0.841908    Uiso  ? C
   H28        1.0     0.720134     0.148792     0.849180    Uiso  ? H
   C56        1.0     0.718931     0.159811     0.789130    Uiso  ? C
   C57        1.0     0.852377     0.882517     0.319265    Uiso  ? C
   C58        1.0     0.853523     0.851200     0.330002    Uiso  ? C
   C59        1.0     0.862367     0.844605     0.359405    Uiso  ? C
   H29        1.0     0.865658     0.861944     0.374603    Uiso  ? H
   C60        1.0     0.866738     0.814394     0.369348    Uiso  ? C
   H30        1.0     0.872357     0.812062     0.392282    Uiso  ? H
   C61        1.0     0.860475     0.789910     0.350300    Uiso  ? C
   H31        1.0     0.863522     0.767248     0.357450    Uiso  ? H
   C62        1.0     0.852235     0.796760     0.320896    Uiso  ? C
   C63        1.0     0.847016     0.826933     0.311326    Uiso  ? C
   H32        1.0     0.836999     0.832254     0.288698    Uiso  ? H
   C64        1.0     0.849057     0.772457     0.297666    Uiso  ? C
   C65        1.0     0.114619     0.131260     0.301000    Uiso  ? C
   C66        1.0     0.144561     0.125297     0.314551    Uiso  ? C
   C67        1.0     0.154297     0.140109     0.340607    Uiso  ? C
   H33        1.0     0.139663     0.153567     0.352190    Uiso  ? H
   C68        1.0     0.184179     0.138978     0.350791    Uiso  ? C
   H34        1.0     0.191957     0.150187     0.370293    Uiso  ? H
   C69        1.0     0.205144     0.122241     0.335162    Uiso  ? C
   H35        1.0     0.229010     0.123557     0.340140    Uiso  ? H
   C70        1.0     0.195388     0.106341     0.308734    Uiso  ? C
   C71        1.0     0.165156     0.106427     0.300001    Uiso  ? C
   H36        1.0     0.155786     0.885801     0.280337    Uiso  ? H
   C72        1.0     0.215365     0.881752     0.291867    Uiso  ? C
   C73        1.0     0.723154     0.892978     0.754586    Uiso  ? C
   C74        1.0     0.708195     0.863378     0.760791    Uiso  ? C
   C75        1.0     0.683048     0.855346     0.744876    Uiso  ? C
   H37        1.0     0.675683     0.868760     0.725334    Uiso  ? H
   C76        1.0     0.670292     0.825074     0.748934    Uiso  ? C
   H38        1.0     0.652363     0.815583     0.735328    Uiso  ? H
   C77        1.0     0.681288     0.807621     0.772764    Uiso  ? C
   H39        1.0     0.669496     0.786894     0.777485    Uiso  ? H
   C78        1.0     0.705249     0.817168     0.790610    Uiso  ? C
   C79        1.0     0.718043     0.845618     0.785176    Uiso  ? C
   H40        1.0     0.736994     0.850515     0.798660    Uiso  ? H
   C80        1.0     0.720379     0.798195     0.813468    Uiso  ? C
   C81        1.0     0.779473     0.197426     0.756736    Uiso  ? C
   C82        1.0     0.793306     0.226818     0.747668    Uiso  ? C
   C83        1.0     0.775192     0.251875     0.738285    Uiso  ? C
   H41        1.0     0.750965     0.248327     0.736237    Uiso  ? H
   C84        1.0     0.787821     0.280724     0.733185    Uiso  ? C
   H42        1.0     0.776360     0.298662     0.722713    Uiso  ? H
   C85        1.0     0.818812     0.284290     0.735227    Uiso  ? C
   H43        1.0     0.829858     0.304123     0.726062    Uiso  ? H
   C86        1.0     0.836744     0.260410     0.745296    Uiso  ? C
   C87        1.0     0.824582     0.232419     0.751681    Uiso  ? C
   H44        1.0     0.838864     0.212798     0.757735    Uiso  ? H
   C88        1.0     0.870679     0.263029     0.748442    Uiso  ? C
   C89        1.0     0.179510     0.278850     0.791460    Uiso  ? C
   C90        1.0     0.207376     0.283216     0.809432    Uiso  ? C
   C91        1.0     0.233350     0.299215     0.797379    Uiso  ? C
   H45        1.0     0.234622     0.305113     0.773607    Uiso  ? H
   C92        1.0     0.258831     0.304766     0.814532    Uiso  ? C
   H46        1.0     0.275831     0.316662     0.805316    Uiso  ? H
   C93        1.0     0.260687     0.294045     0.844222    Uiso  ? C
   H47        1.0     0.280780     0.299362     0.858676    Uiso  ? H
   C94        1.0     0.236830     0.276844     0.856865    Uiso  ? C
   C95        1.0     0.209982     0.270299     0.839298    Uiso  ? C
   H48        1.0     0.192916     0.255040     0.847019    Uiso  ? H
   C96        1.0     0.240421     0.263652     0.888485    Uiso  ? C
   O1         1.0     0.803601     0.258550     0.142894    Uiso  ? O
   O2         1.0     0.794082     0.304060     0.126489    Uiso  ? O
   O3         1.0     0.869664     0.259847     0.173377    Uiso  ? O
   O4         1.0     0.841002     0.295083     0.190746    Uiso  ? O
   O5         1.0     0.893316     0.279777     0.147053    Uiso  ? O
   O6         1.0     0.877436     0.327631     0.147359    Uiso  ? O
   O7         1.0     0.854755     0.290006     0.893046    Uiso  ? O
   O8         1.0     0.854312     0.335047     0.114833    Uiso  ? O
   O9         1.0     0.696710     0.108498     0.130942    Uiso  ? O
   O10        1.0     0.648779     0.115955     0.141152    Uiso  ? O
   O11        1.0     0.735350     0.113591     0.170680    Uiso  ? O
   O12        1.0     0.695485     0.133881     0.190030    Uiso  ? O
   O13        1.0     0.722062     0.187131     0.160156    Uiso  ? O
   O14        1.0     0.677661     0.191649     0.141256    Uiso  ? O
   O15        1.0     0.704194     0.140401     0.100814    Uiso  ? O
   O16        1.0     0.665743     0.169826     0.116768    Uiso  ? O
   O17        1.0     0.858054     0.888059     0.291364    Uiso  ? O
   O18        1.0     0.850442     0.109905     0.337301    Uiso  ? O
   O19        1.0     0.104432     0.112290     0.281708    Uiso  ? O
   O20        1.0     0.893004     0.151777     0.312205    Uiso  ? O
   O21        1.0     0.862588     0.170030     0.248411    Uiso  ? O
   O22        1.0     0.875431     0.178875     0.294813    Uiso  ? O
   O23        1.0     0.823048     0.107134     0.250730    Uiso  ? O
   O24        1.0     0.809131     0.133595     0.291378    Uiso  ? O
   O25        1.0     0.746587     0.106844     0.770587    Uiso  ? O
   O26        1.0     0.716157     0.114798     0.732288    Uiso  ? O
   O27        1.0     0.738796     0.140743     0.797426    Uiso  ? O
   O28        1.0     0.722894     0.171837     0.763618    Uiso  ? O
   O29        1.0     0.796717     0.177227     0.767224    Uiso  ? O
   O30        1.0     0.752794     0.190367     0.749286    Uiso  ? O
   O31        1.0     0.805703     0.104578     0.756070    Uiso  ? O
   O32        1.0     0.781230     0.122616     0.717426    Uiso  ? O
   O33        1.0     0.883281     0.243083     0.764621    Uiso  ? O
   O34        1.0     0.884521     0.286963     0.740823    Uiso  ? O
   O35        1.0     0.121797     0.281398     0.798682    Uiso  ? O
   O36        1.0     0.105943     0.312654     0.764100    Uiso  ? O
   O37        1.0     0.157378     0.265943     0.804486    Uiso  ? O
   O38        1.0     0.178547     0.285470     0.763757    Uiso  ? O
   O39        1.0     0.156479     0.229376     0.733255    Uiso  ? O
   O40        1.0     0.138977     0.264398     0.700360    Uiso  ? O
   O41        1.0     0.774563     0.736668     0.837758    Uiso  ? O
   O42        1.0     0.742004     0.700876     0.846110    Uiso  ? O
   O43        1.0     0.769183     0.768378     0.101851    Uiso  ? O
   O44        1.0     0.726826     0.740358     0.898381    Uiso  ? O
   O45        1.0     0.725017     0.804307     0.872640    Uiso  ? O
   O46        1.0     0.700025     0.763836     0.886782    Uiso  ? O
   O47        1.0     0.732287     0.808929     0.837451    Uiso  ? O
   O48        1.0     0.716365     0.769418     0.811165    Uiso  ? O
   O49        1.0     0.845065     0.221503     0.112351    Uiso  ? O
   O50        1.0     0.766323     0.155266     0.116878    Uiso  ? O
   O51        1.0     0.885570     0.109882     0.213569    Uiso  ? O
   O52        1.0     0.808831     0.131552     0.819799    Uiso  ? O
   O53        1.0     0.130903     0.197008     0.795874    Uiso  ? O
   O54        1.0     0.805969     0.800207     0.842986    Uiso  ? O
   Zn1        1.0     0.849382     0.263259     0.130695    Uiso  ? Zn
   Zn2        1.0     0.828962     0.319290     0.152713    Uiso  ? Zn
   Zn3        1.0     0.728858     0.146040     0.140746    Uiso  ? Zn
   Zn4        1.0     0.663853     0.153173     0.162357    Uiso  ? Zn
   Zn5        1.0     0.865315     0.123979     0.254152    Uiso  ? Zn
   Zn6        1.0     0.844108     0.151604     0.315447    Uiso  ? Zn
   Zn7        1.0     0.783418     0.135865     0.781660    Uiso  ? Zn
   Zn8        1.0     0.745141     0.150219     0.724626    Uiso  ? Zn
   Zn9        1.0     0.133570     0.240492     0.773066    Uiso  ? Zn
   Zn10       1.0     0.138087     0.293330     0.734358    Uiso  ? Zn
   Zn11       1.0     0.765563     0.779855     0.856912    Uiso  ? Zn
   Zn12       1.0     0.712686     0.737141     0.849687    Uiso  ? Zn
   C97        1.0     0.185833     0.720188     0.857212    Uiso  ? C
   C98        1.0     0.218195     0.726330     0.865145    Uiso  ? C
   C99        1.0     0.235797     0.701982     0.878101    Uiso  ? C
   H49        1.0     0.227156     0.679516     0.883284    Uiso  ? H
   C100       1.0     0.266204     0.707648     0.885982    Uiso  ? C
   H50        1.0     0.278057     0.689377     0.897688    Uiso  ? H
   C101       1.0     0.281077     0.735341     0.878741    Uiso  ? C
   H51        1.0     0.304073     0.738799     0.885747    Uiso  ? H
   C102       1.0     0.263211     0.759392     0.869268    Uiso  ? C
   C103       1.0     0.230930     0.755948     0.862350    Uiso  ? C
   H52        1.0     0.216603     0.773844     0.854717    Uiso  ? H
   C104       1.0     0.277983     0.789279     0.864852    Uiso  ? C
   C105       1.0     0.143659     0.737101     0.788275    Uiso  ? C
   C106       1.0     0.149039     0.747386     0.757435    Uiso  ? C
   C107       1.0     0.146905     0.727749     0.732130    Uiso  ? C
   H53        1.0     0.138598     0.704611     0.735006    Uiso  ? H
   C108       1.0     0.147903     0.739257     0.702156    Uiso  ? C
   H54        1.0     0.144487     0.723240     0.683610    Uiso  ? H
   C109       1.0     0.153937     0.769224     0.697329    Uiso  ? C
   H55        1.0     0.159121     0.776898     0.675157    Uiso  ? H
   C110       1.0     0.156885     0.788992     0.721693    Uiso  ? C
   C111       1.0     0.156135     0.778019     0.751604    Uiso  ? C
   H56        1.0     0.160597     0.792576     0.770980    Uiso  ? H
   C112       1.0     0.162819     0.821517     0.716914    Uiso  ? C
   C113       1.0     0.875312     0.679631     0.830427    Uiso  ? C
   C114       1.0     0.843188     0.670717     0.825972    Uiso  ? C
   C115       1.0     0.834242     0.642311     0.816477    Uiso  ? C
   H57        1.0     0.850158     0.625933     0.809322    Uiso  ? H
   C116       1.0     0.805017     0.634427     0.815092    Uiso  ? C
   H58        1.0     0.798690     0.612427     0.807651    Uiso  ? H
   C117       1.0     0.782337     0.656218     0.821146    Uiso  ? C
   H59        1.0     0.757964     0.650607     0.818667    Uiso  ? H
   C118       1.0     0.789515     0.685241     0.830371    Uiso  ? C
   C119       1.0     0.819967     0.692019     0.832223    Uiso  ? C
   H60        1.0     0.826684     0.713760     0.839010    Uiso  ? H
   C120       1.0     0.766571     0.708383     0.837259    Uiso  ? C
   C121       1.0     0.129596     0.702516     0.898094    Uiso  ? C
   C122       1.0     0.128655     0.692109     0.130197    Uiso  ? C
   C123       1.0     0.135014     0.662189     0.138701    Uiso  ? C
   H61        1.0     0.148036     0.647783     0.124748    Uiso  ? H
   C124       1.0     0.130468     0.652039     0.167968    Uiso  ? C
   H62        1.0     0.140475     0.629702     0.175005    Uiso  ? H
   C125       1.0     0.116975     0.671592     0.189333    Uiso  ? C
   H63        1.0     0.113606     0.663193     0.211383    Uiso  ? H
   C126       1.0     0.106543     0.700177     0.180946    Uiso  ? C
   C127       1.0     0.113898     0.709696     0.151912    Uiso  ? C
   H64        1.0     0.108103     0.732389     0.146058    Uiso  ? H
   C128       1.0     0.882344     0.717773     0.202155    Uiso  ? C
   C129       1.0     0.317775     0.103314     0.878741    Uiso  ? C
   C130       1.0     0.322305     0.136680     0.877083    Uiso  ? C
   C131       1.0     0.349062     0.149591     0.865734    Uiso  ? C
   H65        1.0     0.367434     0.135332     0.857255    Uiso  ? H
   C132       1.0     0.353975     0.181136     0.869494    Uiso  ? C
   H66        1.0     0.375076     0.190538     0.861545    Uiso  ? H
   C133       1.0     0.331999     0.200014     0.881685    Uiso  ? C
   H67        1.0     0.335660     0.224247     0.884755    Uiso  ? H
   C134       1.0     0.305954     0.187116     0.891747    Uiso  ? C
   C135       1.0     0.300500     0.155885     0.889354    Uiso  ? C
   H68        1.0     0.278202     0.146846     0.897255    Uiso  ? H
   C136       1.0     0.283951     0.208150     0.107211    Uiso  ? C
   C137       1.0     0.291351     0.856760     0.821482    Uiso  ? C
   C138       1.0     0.284901     0.863062     0.789017    Uiso  ? C
   C139       1.0     0.309644     0.868000     0.769712    Uiso  ? C
   H69        1.0     0.331985     0.864605     0.777444    Uiso  ? H
   C140       1.0     0.304533     0.876817     0.740460    Uiso  ? C
   H70        1.0     0.323514     0.882508     0.727384    Uiso  ? H
   C141       1.0     0.275660     0.878224     0.727874    Uiso  ? C
   H71        1.0     0.273530     0.881675     0.703985    Uiso  ? H
   C142       1.0     0.251539     0.872400     0.746775    Uiso  ? C
   C143       1.0     0.255808     0.864695     0.777742    Uiso  ? C
   H72        1.0     0.233828     0.861019     0.790096    Uiso  ? H
   C144       1.0     0.220560     0.872944     0.734848    Uiso  ? C
   C145       1.0     0.333964     0.836735     0.126071    Uiso  ? C
   C146       1.0     0.342580     0.840965     0.158853    Uiso  ? C
   C147       1.0     0.371570     0.854227     0.165775    Uiso  ? C
   H73        1.0     0.386315     0.861260     0.147494    Uiso  ? H
   C148       1.0     0.378854     0.861096     0.194897    Uiso  ? C
   H74        1.0     0.399034     0.871620     0.199772    Uiso  ? H
   C149       1.0     0.358193     0.855596     0.217673    Uiso  ? C
   H75        1.0     0.363802     0.863674     0.240828    Uiso  ? H
   C150       1.0     0.328510     0.843604     0.211500    Uiso  ? C
   C151       1.0     0.321046     0.835811     0.181204    Uiso  ? C
   H76        1.0     0.297584     0.829166     0.173212    Uiso  ? H
   C152       1.0     0.305458     0.842124     0.234244    Uiso  ? C
   C153       1.0     0.168389     0.132415     0.672533    Uiso  ? C
   C154       1.0     0.163643     0.164997     0.665142    Uiso  ? C
   C155       1.0     0.155284     0.172739     0.636553    Uiso  ? C
   H77        1.0     0.149057     0.154053     0.621332    Uiso  ? H
   C156       1.0     0.148482     0.202750     0.629335    Uiso  ? C
   H78        1.0     0.138209     0.210043     0.608979    Uiso  ? H
   C157       1.0     0.149018     0.225718     0.651024    Uiso  ? C
   H79        1.0     0.146657     0.249175     0.642904    Uiso  ? H
   C158       1.0     0.156756     0.217230     0.681030    Uiso  ? C
   C159       1.0     0.164816     0.187746     0.687819    Uiso  ? C
   H80        1.0     0.172477     0.182212     0.710682    Uiso  ? H
   C160       1.0     0.151221     0.238937     0.705961    Uiso  ? C
   C161       1.0     0.111786     0.869148     0.705729    Uiso  ? C
   C162       1.0     0.873476     0.866766     0.698278    Uiso  ? C
   C163       1.0     0.864341     0.855964     0.670512    Uiso  ? C
   H81        1.0     0.880520     0.844113     0.655087    Uiso  ? H
   C164       1.0     0.832943     0.856930     0.663559    Uiso  ? C
   H82        1.0     0.824805     0.846103     0.643116    Uiso  ? H
   C165       1.0     0.812174     0.872730     0.681213    Uiso  ? C
   H83        1.0     0.788082     0.874897     0.673885    Uiso  ? H
   C166       1.0     0.822642     0.885122     0.708550    Uiso  ? C
   C167       1.0     0.852973     0.882095     0.716603    Uiso  ? C
   H84        1.0     0.859017     0.892594     0.737703    Uiso  ? H
   C168       1.0     0.802662     0.107632     0.727792    Uiso  ? C
   C169       1.0     0.257635     0.113412     0.243190    Uiso  ? C
   C170       1.0     0.255768     0.147194     0.243487    Uiso  ? C
   C171       1.0     0.270030     0.162593     0.266799    Uiso  ? C
   H85        1.0     0.274667     0.149076     0.286959    Uiso  ? H
   C172       1.0     0.270625     0.195031     0.267135    Uiso  ? C
   H86        1.0     0.281574     0.209155     0.284638    Uiso  ? H
   C173       1.0     0.259399     0.210436     0.241886    Uiso  ? C
   H87        1.0     0.259230     0.234305     0.243959    Uiso  ? H
   C174       1.0     0.245376     0.194287     0.218446    Uiso  ? C
   C175       1.0     0.243881     0.162652     0.219254    Uiso  ? C
   H88        1.0     0.233077     0.150340     0.201465    Uiso  ? H
   C176       1.0     0.238675     0.210559     0.190257    Uiso  ? C
   C177       1.0     0.216408     0.803633     0.268919    Uiso  ? C
   C178       1.0     0.199177     0.775066     0.269248    Uiso  ? C
   C179       1.0     0.211866     0.747553     0.279635    Uiso  ? C
   H89        1.0     0.234893     0.745913     0.286988    Uiso  ? H
   C180       1.0     0.192984     0.720669     0.279443    Uiso  ? C
   H90        1.0     0.201086     0.697782     0.286257    Uiso  ? H
   C181       1.0     0.162236     0.722818     0.271373    Uiso  ? C
   H91        1.0     0.147010     0.703136     0.272361    Uiso  ? H
   C182       1.0     0.151484     0.750512     0.260192    Uiso  ? C
   C183       1.0     0.170392     0.775035     0.257535    Uiso  ? C
   H92        1.0     0.160141     0.795165     0.248621    Uiso  ? H
   C184       1.0     0.119053     0.753370     0.253234    Uiso  ? C
   C185       1.0     0.809573     0.744718     0.209616    Uiso  ? C
   C186       1.0     0.778692     0.741860     0.193628    Uiso  ? C
   C187       1.0     0.751752     0.739661     0.211176    Uiso  ? C
   H93        1.0     0.752041     0.741334     0.235505    Uiso  ? H
   C188       1.0     0.724088     0.737322     0.195384    Uiso  ? C
   H94        1.0     0.703334     0.735095     0.206614    Uiso  ? H
   C189       1.0     0.723050     0.742119     0.163619    Uiso  ? C
   H95        1.0     0.703393     0.743001     0.152751    Uiso  ? H
   C190       1.0     0.749688     0.745794     0.147179    Uiso  ? C
   C191       1.0     0.777474     0.745462     0.161920    Uiso  ? C
   H96        1.0     0.799089     0.748203     0.149333    Uiso  ? H
   C192       1.0     0.748560     0.752156     0.114079    Uiso  ? C
   O55        1.0     0.170575     0.739837     0.842794    Uiso  ? O
   O56        1.0     0.174384     0.694468     0.861739    Uiso  ? O
   O57        1.0     0.152171     0.752213     0.812505    Uiso  ? O
   O58        1.0     0.136078     0.710562     0.792270    Uiso  ? O
   O59        1.0     0.881190     0.707526     0.832126    Uiso  ? O
   O60        1.0     0.896327     0.659893     0.831677    Uiso  ? O
   O61        1.0     0.121431     0.728870     0.891318    Uiso  ? O
   O62        1.0     0.140499     0.685457     0.877408    Uiso  ? O
   O63        1.0     0.291615     0.887914     0.887615    Uiso  ? O
   O64        1.0     0.334437     0.878055     0.866164    Uiso  ? O
   O65        1.0     0.271735     0.844402     0.838342    Uiso  ? O
   O66        1.0     0.319145     0.857721     0.829976    Uiso  ? O
   O67        1.0     0.262417     0.812281     0.856761    Uiso  ? O
   O68        1.0     0.306017     0.792657     0.870928    Uiso  ? O
   O69        1.0     0.306033     0.833336     0.120968    Uiso  ? O
   O70        1.0     0.351018     0.843701     0.104616    Uiso  ? O
   O71        1.0     0.167027     0.125236     0.700297    Uiso  ? O
   O72        1.0     0.170412     0.111794     0.652351    Uiso  ? O
   O73        1.0     0.120027     0.880094     0.731061    Uiso  ? O
   O74        1.0     0.131705     0.864287     0.685670    Uiso  ? O
   O75        1.0     0.169880     0.838531     0.738964    Uiso  ? O
   O76        1.0     0.158419     0.832400     0.691144    Uiso  ? O
   O77        1.0     0.199532     0.857705     0.747995    Uiso  ? O
   O78        1.0     0.214855     0.886457     0.711616    Uiso  ? O
   O79        1.0     0.241621     0.893867     0.222545    Uiso  ? O
   O80        1.0     0.264504     0.892272     0.266681    Uiso  ? O
   O81        1.0     0.278073     0.844080     0.226453    Uiso  ? O
   O82        1.0     0.311640     0.839713     0.262279    Uiso  ? O
   O83        1.0     0.202924     0.827607     0.263815    Uiso  ? O
   O84        1.0     0.244587     0.805309     0.268075    Uiso  ? O
   O85        1.0     0.205049     0.863065     0.271258    Uiso  ? O
   O86        1.0     0.244019     0.883974     0.294734    Uiso  ? O
   O87        1.0     0.110736     0.772748     0.233247    Uiso  ? O
   O88        1.0     0.896361     0.733189     0.262042    Uiso  ? O
   O89        1.0     0.869409     0.741057     0.193103    Uiso  ? O
   O90        1.0     0.879620     0.709594     0.230430    Uiso  ? O
   O91        1.0     0.833198     0.751629     0.195270    Uiso  ? O
   O92        1.0     0.811509     0.746409     0.238259    Uiso  ? O
   O93        1.0     0.852688     0.779979     0.270049    Uiso  ? O
   O94        1.0     0.848340     0.745020     0.305572    Uiso  ? O
   O95        1.0     0.208146     0.260742     0.142587    Uiso  ? O
   O96        1.0     0.241296     0.293666     0.155767    Uiso  ? O
   O97        1.0     0.218755     0.252094     0.101495    Uiso  ? O
   O98        1.0     0.267199     0.265650     0.100000    Uiso  ? O
   O99        1.0     0.261276     0.196002     0.118037    Uiso  ? O
   O100       1.0     0.288239     0.237311     0.108632    Uiso  ? O
   O101       1.0     0.215742     0.203684     0.173184    Uiso  ? O
   O102       1.0     0.258222     0.228968     0.179502    Uiso  ? O
   O103       1.0     0.885888     0.775504     0.851503    Uiso  ? O
   O104       1.0     0.238258     0.847937     0.114935    Uiso  ? O
   O105       1.0     0.167889     0.118986     0.773989    Uiso  ? O
   O106       1.0     0.205851     0.825081     0.199922    Uiso  ? O
   O107       1.0     0.851746     0.823606     0.209715    Uiso  ? O
   O108       1.0     0.185722     0.189003     0.120138    Uiso  ? O
   Zn13       1.0     0.119693     0.739158     0.846042    Uiso  ? Zn
   Zn14       1.0     0.142842     0.679273     0.828824    Uiso  ? Zn
   Zn15       1.0     0.276043     0.844226     0.887597    Uiso  ? Zn
   Zn16       1.0     0.334534     0.827425     0.863126    Uiso  ? Zn
   Zn17       1.0     0.162592     0.886412     0.737469    Uiso  ? Zn
   Zn18       1.0     0.181432     0.871976     0.679237    Uiso  ? Zn
   Zn19       1.0     0.229459     0.848841     0.231260    Uiso  ? Zn
   Zn20       1.0     0.269155     0.843480     0.282330    Uiso  ? Zn
   Zn21       1.0     0.860337     0.778093     0.223557    Uiso  ? Zn
   Zn22       1.0     0.845901     0.727812     0.262705    Uiso  ? Zn
   Zn23       1.0     0.221526     0.215313     0.130555    Uiso  ? Zn
   Zn24       1.0     0.273095     0.259925     0.148512    Uiso  ? Zn
   H97        1.0     0.236972     0.862828     0.131013    Uiso  ? H
   H98        1.0     0.221351     0.842916     0.103275    Uiso  ? H
   H99        1.0     0.769400     0.145636     0.896786    Uiso  ? H
   H100       1.0     0.780497     0.170004     0.124641    Uiso  ? H
   H101       1.0     0.811118     0.820182     0.849563    Uiso  ? H
   H102       1.0     0.817833     0.790007     0.828537    Uiso  ? H
   H103       1.0     0.828385     0.141946     0.817568    Uiso  ? H
   H104       1.0     0.809397     0.113480     0.830258    Uiso  ? H
   H105       1.0     0.185505     0.167521     0.115518    Uiso  ? H
   H106       1.0     0.167088     0.199917     0.123500    Uiso  ? H
   H107       1.0     0.828382     0.208740     0.116592    Uiso  ? H
   H108       1.0     0.858142     0.215419     0.894810    Uiso  ? H
   H109       1.0     0.109619     0.194541     0.799916    Uiso  ? H
   H110       1.0     0.147321     0.191158     0.810698    Uiso  ? H
   H111       1.0     0.216353     0.820922     0.180829    Uiso  ? H
   H112       1.0     0.185284     0.822810     0.203984    Uiso  ? H
   H113       1.0     0.112417     0.107333     0.211433    Uiso  ? H
   H114       1.0     0.871802     0.893817     0.199147    Uiso  ? H
   H115       1.0     0.832557     0.830093     0.201833    Uiso  ? H
   H116       1.0     0.870194     0.836020     0.209834    Uiso  ? H
   H117       1.0     0.154775     0.113772     0.791032    Uiso  ? H
   H118       1.0     0.188510     0.124924     0.778288    Uiso  ? H
   H119       1.0     0.874967     0.780128     0.870333    Uiso  ? H
   H120       1.0     0.885906     0.789159     0.834476    Uiso  ? H
   C193       1.0     0.704232     0.447748     0.378656    Uiso  ? C
   C194       1.0     0.684383     0.444410     0.404634    Uiso  ? C
   C195       1.0     0.652593     0.443327     0.401203    Uiso  ? C
   H121       1.0     0.643201     0.444047     0.377414    Uiso  ? H
   C196       1.0     0.634869     0.445380     0.426364    Uiso  ? C
   H122       1.0     0.611454     0.443817     0.423867    Uiso  ? H
   C197       1.0     0.646056     0.449742     0.455018    Uiso  ? C
   H123       1.0     0.630295     0.454454     0.474184    Uiso  ? H
   C198       1.0     0.676682     0.450173     0.459214    Uiso  ? C
   C199       1.0     0.695904     0.447818     0.433884    Uiso  ? C
   H124       1.0     0.719658     0.453119     0.438460    Uiso  ? H
   C200       1.0     0.688459     0.455758     0.489262    Uiso  ? C
   C201       1.0     0.748962     0.517499     0.343370    Uiso  ? C
   C202       1.0     0.744737     0.549623     0.341133    Uiso  ? C
   C203       1.0     0.744146     0.562816     0.312347    Uiso  ? C
   H125       1.0     0.745811     0.549783     0.292433    Uiso  ? H
   C204       1.0     0.740961     0.595133     0.311166    Uiso  ? C
   H126       1.0     0.743305     0.605574     0.288935    Uiso  ? H
   C205       1.0     0.732855     0.611949     0.337077    Uiso  ? C
   H127       1.0     0.727938     0.636284     0.334849    Uiso  ? H
   C206       1.0     0.731299     0.597154     0.365473    Uiso  ? C
   C207       1.0     0.739714     0.566858     0.367169    Uiso  ? C
   H128       1.0     0.737860     0.556232     0.389918    Uiso  ? H
   C208       1.0     0.731127     0.614802     0.394901    Uiso  ? C
   C209       1.0     0.783919     0.483894     0.298117    Uiso  ? C
   C210       1.0     0.803199     0.499822     0.276385    Uiso  ? C
   C211       1.0     0.794425     0.504749     0.246108    Uiso  ? C
   H129       1.0     0.771042     0.499383     0.237285    Uiso  ? H
   C212       1.0     0.815738     0.515864     0.226066    Uiso  ? C
   H130       1.0     0.810929     0.520623     0.202400    Uiso  ? H
   C213       1.0     0.844122     0.524893     0.235164    Uiso  ? C
   H131       1.0     0.857766     0.537326     0.220086    Uiso  ? H
   C214       1.0     0.852930     0.520569     0.265281    Uiso  ? C
   C215       1.0     0.833194     0.506997     0.285224    Uiso  ? C
   H132       1.0     0.838194     0.507146     0.310780    Uiso  ? H
   C216       1.0     0.881036     0.532275     0.276297    Uiso  ? C
   C217       1.0     0.787313     0.414749     0.330027    Uiso  ? C
   C218       1.0     0.804958     0.388073     0.321221    Uiso  ? C
   C219       1.0     0.790385     0.361299     0.313390    Uiso  ? C
   H133       1.0     0.766253     0.360828     0.312600    Uiso  ? H
   C220       1.0     0.806864     0.333996     0.311247    Uiso  ? C
   H134       1.0     0.796586     0.312466     0.309634    Uiso  ? H
   C221       1.0     0.837486     0.334172     0.317630    Uiso  ? C
   H135       1.0     0.849842     0.312277     0.317168    Uiso  ? H
   C222       1.0     0.852964     0.361868     0.321922    Uiso  ? C
   C223       1.0     0.836954     0.388095     0.322843    Uiso  ? C
   H136       1.0     0.848701     0.408373     0.328626    Uiso  ? H
   C224       1.0     0.884397     0.362608     0.332947    Uiso  ? C
   C225       1.0     0.731847     0.474084     0.598644    Uiso  ? C
   C226       1.0     0.740695     0.472620     0.631349    Uiso  ? C
   C227       1.0     0.724322     0.488445     0.652969    Uiso  ? C
   H137       1.0     0.708111     0.506104     0.646958    Uiso  ? H
   C228       1.0     0.732278     0.487060     0.682945    Uiso  ? C
   H138       1.0     0.718424     0.501559     0.698793    Uiso  ? H
   C229       1.0     0.756737     0.471727     0.691852    Uiso  ? C
   H139       1.0     0.763181     0.473915     0.715200    Uiso  ? H
   C230       1.0     0.775050     0.457278     0.670758    Uiso  ? C
   C231       1.0     0.766422     0.457037     0.639627    Uiso  ? C
   H140       1.0     0.780102     0.444854     0.623452    Uiso  ? H
   C232       1.0     0.805730     0.449025     0.678457    Uiso  ? C
   C233       1.0     0.682436     0.513683     0.526529    Uiso  ? C
   C234       1.0     0.670164     0.540871     0.512192    Uiso  ? C
   C235       1.0     0.641354     0.550701     0.519514    Uiso  ? C
   H141       1.0     0.626877     0.538341     0.534660    Uiso  ? H
   C236       1.0     0.629422     0.577957     0.507381    Uiso  ? C
   H142       1.0     0.607852     0.586271     0.511583    Uiso  ? H
   C237       1.0     0.647703     0.595030     0.486966    Uiso  ? C
   H143       1.0     0.641006     0.615424     0.476597    Uiso  ? H
   C238       1.0     0.678970     0.586260     0.482202    Uiso  ? C
   C239       1.0     0.689490     0.559015     0.493492    Uiso  ? C
   H144       1.0     0.713238     0.554141     0.492928    Uiso  ? H
   C240       1.0     0.699935     0.605753     0.465453    Uiso  ? C
   C241       1.0     0.726445     0.410464     0.526143    Uiso  ? C
   C242       1.0     0.733383     0.378850     0.517001    Uiso  ? C
   C243       1.0     0.710656     0.361969     0.502778    Uiso  ? C
   H145       1.0     0.688799     0.372573     0.498093    Uiso  ? H
   C244       1.0     0.717652     0.333227     0.493566    Uiso  ? C
   H146       1.0     0.700057     0.318947     0.484645    Uiso  ? H
   C245       1.0     0.745256     0.319910     0.501914    Uiso  ? C
   H147       1.0     0.746948     0.296941     0.496897    Uiso  ? H
   C246       1.0     0.768482     0.337715     0.515673    Uiso  ? C
   C247       1.0     0.762337     0.367527     0.521828    Uiso  ? C
   H148       1.0     0.779367     0.381548     0.533582    Uiso  ? H
   C248       1.0     0.797774     0.323205     0.522241    Uiso  ? C
   C249       1.0     0.738710     0.643788     0.501763    Uiso  ? C
   C250       1.0     0.733074     0.642771     0.535010    Uiso  ? C
   C251       1.0     0.704577     0.643583     0.550609    Uiso  ? C
   H149       1.0     0.684507     0.644264     0.535962    Uiso  ? H
   C252       1.0     0.704011     0.640966     0.582388    Uiso  ? C
   H150       1.0     0.683034     0.642227     0.595405    Uiso  ? H
   C253       1.0     0.732305     0.638447     0.597976    Uiso  ? C
   H151       1.0     0.730306     0.637700     0.622636    Uiso  ? H
   C254       1.0     0.760569     0.637917     0.583188    Uiso  ? C
   C255       1.0     0.759581     0.641395     0.551940    Uiso  ? C
   H152       1.0     0.782791     0.647641     0.541535    Uiso  ? H
   C256       1.0     0.789140     0.635673     0.600807    Uiso  ? C
   C257       1.0     0.762053     0.699144     0.440102    Uiso  ? C
   C258       1.0     0.787679     0.720531     0.441785    Uiso  ? C
   C259       1.0     0.782355     0.751857     0.446515    Uiso  ? C
   H153       1.0     0.760271     0.761285     0.447460    Uiso  ? H
   C260       1.0     0.806973     0.771566     0.450392    Uiso  ? C
   H154       1.0     0.803677     0.795030     0.455442    Uiso  ? H
   C261       1.0     0.836751     0.761598     0.448304    Uiso  ? C
   H155       1.0     0.853906     0.780218     0.445644    Uiso  ? H
   C262       1.0     0.842924     0.730589     0.445211    Uiso  ? C
   C263       1.0     0.818230     0.710638     0.440060    Uiso  ? C
   H156       1.0     0.823585     0.687483     0.435097    Uiso  ? H
   C264       1.0     0.875443     0.720222     0.447460    Uiso  ? C
   C265       1.0     0.847401     0.307644     0.581896    Uiso  ? C
   C266       1.0     0.848861     0.313966     0.615010    Uiso  ? C
   C267       1.0     0.852975     0.290867     0.636210    Uiso  ? C
   H157       1.0     0.851791     0.268440     0.630239    Uiso  ? H
   C268       1.0     0.857996     0.297408     0.666247    Uiso  ? C
   H158       1.0     0.860948     0.279332     0.683162    Uiso  ? H
   C269       1.0     0.861494     0.327563     0.675576    Uiso  ? C
   H159       1.0     0.868042     0.333962     0.698585    Uiso  ? H
   C270       1.0     0.857188     0.350525     0.653420    Uiso  ? C
   C271       1.0     0.851279     0.343977     0.624754    Uiso  ? C
   H160       1.0     0.851051     0.362039     0.608142    Uiso  ? H
   C272       1.0     0.860328     0.382991     0.662582    Uiso  ? C
   C273       1.0     0.861402     0.271828     0.473938    Uiso  ? C
   C274       1.0     0.873214     0.264694     0.442351    Uiso  ? C
   C275       1.0     0.869357     0.236267     0.430861    Uiso  ? C
   H161       1.0     0.860384     0.218817     0.445448    Uiso  ? H
   C276       1.0     0.875927     0.230671     0.399295    Uiso  ? C
   H162       1.0     0.878312     0.208808     0.392612    Uiso  ? H
   C277       1.0     0.888656     0.255171     0.381090    Uiso  ? C
   H163       1.0     0.896940     0.248433     0.358178    Uiso  ? H
   C278       1.0     0.895167     0.283663     0.394574    Uiso  ? C
   C279       1.0     0.885482     0.289047     0.424848    Uiso  ? C
   H164       1.0     0.887708     0.311282     0.434339    Uiso  ? H
   C280       1.0     0.113134     0.308702     0.377253    Uiso  ? C
   C281       1.0     0.152078     0.380487     0.298595    Uiso  ? C
   C282       1.0     0.151620     0.406747     0.277233    Uiso  ? C
   C283       1.0     0.158103     0.401848     0.246884    Uiso  ? C
   H165       1.0     0.163827     0.378588     0.240442    Uiso  ? H
   C284       1.0     0.155630     0.425339     0.226963    Uiso  ? C
   H166       1.0     0.159024     0.422292     0.202639    Uiso  ? H
   C285       1.0     0.149128     0.454287     0.237163    Uiso  ? C
   H167       1.0     0.148690     0.473205     0.221049    Uiso  ? H
   C286       1.0     0.147276     0.461771     0.268402    Uiso  ? C
   C287       1.0     0.146376     0.436685     0.288342    Uiso  ? C
   H168       1.0     0.143287     0.440406     0.312645    Uiso  ? H
   C288       1.0     0.143684     0.493920     0.279646    Uiso  ? C
   O109       1.0     0.731856     0.451628     0.382919    Uiso  ? O
   O110       1.0     0.694319     0.447550     0.351836    Uiso  ? O
   O111       1.0     0.767864     0.508477     0.362534    Uiso  ? O
   O112       1.0     0.734303     0.499166     0.325935    Uiso  ? O
   O113       1.0     0.796313     0.471793     0.322915    Uiso  ? O
   O114       1.0     0.755169     0.485610     0.296748    Uiso  ? O
   O115       1.0     0.799554     0.440420     0.335523    Uiso  ? O
   O116       1.0     0.758758     0.414431     0.329217    Uiso  ? O
   O117       1.0     0.747345     0.460567     0.578260    Uiso  ? O
   O118       1.0     0.705856     0.483765     0.591976    Uiso  ? O
   O119       1.0     0.711551     0.509699     0.525640    Uiso  ? O
   O120       1.0     0.664769     0.490624     0.532817    Uiso  ? O
   O121       1.0     0.717120     0.455992     0.494089    Uiso  ? O
   O122       1.0     0.670782     0.457785     0.512001    Uiso  ? O
   O123       1.0     0.740242     0.432361     0.514340    Uiso  ? O
   O124       1.0     0.709034     0.414429     0.548008    Uiso  ? O
   O125       1.0     0.758205     0.626197     0.490986    Uiso  ? O
   O126       1.0     0.720968     0.657330     0.483842    Uiso  ? O
   O127       1.0     0.766837     0.670462     0.442329    Uiso  ? O
   O128       1.0     0.734271     0.706707     0.441404    Uiso  ? O
   O129       1.0     0.737416     0.598916     0.418639    Uiso  ? O
   O130       1.0     0.733870     0.643010     0.395025    Uiso  ? O
   O131       1.0     0.725051     0.595828     0.454249    Uiso  ? O
   O132       1.0     0.695679     0.633685     0.464167    Uiso  ? O
   O133       1.0     0.842647     0.329325     0.562340    Uiso  ? O
   O134       1.0     0.854928     0.281946     0.571620    Uiso  ? O
   O135       1.0     0.818618     0.337145     0.536902    Uiso  ? O
   O136       1.0     0.802342     0.296619     0.513968    Uiso  ? O
   O137       1.0     0.860790     0.299294     0.481521    Uiso  ? O
   O138       1.0     0.858546     0.251316     0.494631    Uiso  ? O
   O139       1.0     0.107499     0.319305     0.534583    Uiso  ? O
   O140       1.0     0.886310     0.273831     0.542297    Uiso  ? O
   O141       1.0     0.126047     0.329830     0.391261    Uiso  ? O
   O142       1.0     0.116751     0.307175     0.349316    Uiso  ? O
   O143       1.0     0.895325     0.384538     0.349025    Uiso  ? O
   O144       1.0     0.107305     0.339851     0.327047    Uiso  ? O
   O145       1.0     0.147082     0.384965     0.326339    Uiso  ? O
   O146       1.0     0.156632     0.352895     0.289235    Uiso  ? O
   O147       1.0     0.177895     0.387529     0.387043    Uiso  ? O
   O148       1.0     0.189008     0.346422     0.359888    Uiso  ? O
   O149       1.0     0.114830     0.437630     0.690262    Uiso  ? O
   O150       1.0     0.886948     0.448711     0.732504    Uiso  ? O
   O151       1.0     0.856076     0.484126     0.675858    Uiso  ? O
   O152       1.0     0.855005     0.472214     0.723847    Uiso  ? O
   O153       1.0     0.827755     0.456669     0.660678    Uiso  ? O
   O154       1.0     0.810676     0.437088     0.703085    Uiso  ? O
   O155       1.0     0.856184     0.403503     0.643331    Uiso  ? O
   O156       1.0     0.868137     0.389381     0.690280    Uiso  ? O
   O157       1.0     0.801282     0.453764     0.401327    Uiso  ? O
   O158       1.0     0.782026     0.495568     0.529350    Uiso  ? O
   O159       1.0     0.806544     0.610268     0.439290    Uiso  ? O
   O160       1.0     0.860231     0.371107     0.496794    Uiso  ? O
   O161       1.0     0.148147     0.400526     0.408834    Uiso  ? O
   O162       1.0     0.103801     0.453254     0.621907    Uiso  ? O
   Zn25       1.0     0.774727     0.464753     0.366573    Uiso  ? Zn
   Zn26       1.0     0.727976     0.451260     0.320961    Uiso  ? Zn
   Zn27       1.0     0.741534     0.474231     0.535161    Uiso  ? Zn
   Zn28       1.0     0.683386     0.455636     0.560035    Uiso  ? Zn
   Zn29       1.0     0.764119     0.624259     0.447293    Uiso  ? Zn
   Zn30       1.0     0.714734     0.666335     0.435607    Uiso  ? Zn
   Zn31       1.0     0.858578     0.329710     0.517008    Uiso  ? Zn
   Zn32       1.0     0.837594     0.268032     0.531074    Uiso  ? Zn
   Zn33       1.0     0.139344     0.369480     0.371730    Uiso  ? Zn
   Zn34       1.0     0.155004     0.327976     0.328772    Uiso  ? Zn
   Zn35       1.0     0.873131     0.442355     0.660166    Uiso  ? Zn
   Zn36       1.0     0.851601     0.422403     0.721454    Uiso  ? Zn
   C289       1.0     0.272193     0.552603     0.609657    Uiso  ? C
   C290       1.0     0.295536     0.556897     0.586053    Uiso  ? C
   C291       1.0     0.326065     0.564616     0.593566    Uiso  ? C
   H169       1.0     0.332373     0.568211     0.617026    Uiso  ? H
   C292       1.0     0.348169     0.570124     0.572023    Uiso  ? C
   H170       1.0     0.370413     0.574403     0.578691    Uiso  ? H
   C293       1.0     0.341887     0.568529     0.541835    Uiso  ? C
   H171       1.0     0.359621     0.573530     0.525101    Uiso  ? H
   C294       1.0     0.313508     0.556723     0.532765    Uiso  ? C
   C295       1.0     0.290912     0.551754     0.555240    Uiso  ? C
   H172       1.0     0.268451     0.542798     0.550196    Uiso  ? H
   C296       1.0     0.304768     0.553299     0.500276    Uiso  ? C
   C297       1.0     0.261391     0.489745     0.649486    Uiso  ? C
   C298       1.0     0.272851     0.458976     0.644513    Uiso  ? C
   C299       1.0     0.288710     0.443023     0.667650    Uiso  ? C
   H173       1.0     0.290950     0.454089     0.689227    Uiso  ? H
   C300       1.0     0.296582     0.413290     0.663053    Uiso  ? C
   H174       1.0     0.304666     0.402051     0.681797    Uiso  ? H
   C301       1.0     0.285501     0.397664     0.637417    Uiso  ? C
   H175       1.0     0.290643     0.373635     0.635387    Uiso  ? H
   C302       1.0     0.273413     0.413525     0.613485    Uiso  ? C
   C303       1.0     0.265724     0.444421     0.617527    Uiso  ? C
   H176       1.0     0.251295     0.455291     0.600162    Uiso  ? H
   C304       1.0     0.264447     0.398681     0.585052    Uiso  ? C
   C305       1.0     0.208234     0.503276     0.692080    Uiso  ? C
   C306       1.0     0.192548     0.483894     0.713474    Uiso  ? C
   C307       1.0     0.203529     0.478710     0.743444    Uiso  ? C
   H177       1.0     0.225884     0.486808     0.749098    Uiso  ? H
   C308       1.0     0.182944     0.467924     0.766011    Uiso  ? C
   H178       1.0     0.190186     0.465869     0.789969    Uiso  ? H
   C309       1.0     0.152830     0.460743     0.758249    Uiso  ? C
   H179       1.0     0.136473     0.451486     0.775171    Uiso  ? H
   C310       1.0     0.144711     0.459152     0.727077    Uiso  ? C
   C311       1.0     0.164555     0.471008     0.706144    Uiso  ? C
   H180       1.0     0.158091     0.471508     0.682300    Uiso  ? H
   C312       1.0     0.115937     0.445635     0.716219    Uiso  ? C
   C313       1.0     0.195421     0.587979     0.668685    Uiso  ? C
   C314       1.0     0.174826     0.612927     0.678854    Uiso  ? C
   C315       1.0     0.177864     0.626055     0.707260    Uiso  ? C
   H181       1.0     0.195223     0.617190     0.721759    Uiso  ? H
   C316       1.0     0.155585     0.645574     0.719084    Uiso  ? C
   H182       1.0     0.157131     0.651786     0.743101    Uiso  ? H
   C317       1.0     0.128941     0.651286     0.702402    Uiso  ? C
   H183       1.0     0.110382     0.663813     0.712455    Uiso  ? H
   C318       1.0     0.126333     0.640617     0.672281    Uiso  ? C
   C319       1.0     0.149488     0.621494     0.661364    Uiso  ? C
   H184       1.0     0.145255     0.610879     0.639503    Uiso  ? H
   C320       1.0     0.892610     0.643788     0.655538    Uiso  ? C
   C321       1.0     0.271106     0.532368     0.390464    Uiso  ? C
   C322       1.0     0.260128     0.522734     0.359701    Uiso  ? C
   C323       1.0     0.279201     0.506172     0.339802    Uiso  ? C
   H185       1.0     0.300746     0.497307     0.348829    Uiso  ? H
   C324       1.0     0.269542     0.498968     0.311351    Uiso  ? C
   H186       1.0     0.284404     0.485777     0.295681    Uiso  ? H
   C325       1.0     0.241477     0.506537     0.301282    Uiso  ? C
   H187       1.0     0.233266     0.498128     0.279545    Uiso  ? H
   C326       1.0     0.222031     0.522671     0.321413    Uiso  ? C
   C327       1.0     0.231992     0.532553     0.349160    Uiso  ? C
   H188       1.0     0.218372     0.545572     0.363497    Uiso  ? H
   C328       1.0     0.191696     0.530489     0.312923    Uiso  ? C
   C329       1.0     0.320448     0.496741     0.462845    Uiso  ? C
   C330       1.0     0.332782     0.470105     0.477815    Uiso  ? C
   C331       1.0     0.364389     0.461591     0.473110    Uiso  ? C
   H189       1.0     0.379291     0.474206     0.459372    Uiso  ? H
   C332       1.0     0.372687     0.433437     0.484108    Uiso  ? C
   H190       1.0     0.396801     0.428238     0.480315    Uiso  ? H
   C333       1.0     0.351329     0.413389     0.494768    Uiso  ? C
   H191       1.0     0.358378     0.390868     0.500154    Uiso  ? H
   C334       1.0     0.321903     0.423381     0.500468    Uiso  ? C
   C335       1.0     0.313722     0.452068     0.493367    Uiso  ? C
   H192       1.0     0.291365     0.460612     0.496866    Uiso  ? H
   C336       1.0     0.299469     0.403523     0.515555    Uiso  ? C
   C337       1.0     0.267463     0.595361     0.460693    Uiso  ? C
   C338       1.0     0.256314     0.625067     0.469549    Uiso  ? C
   C339       1.0     0.277834     0.645272     0.483195    Uiso  ? C
   H193       1.0     0.302083     0.639085     0.484420    Uiso  ? H
   C340       1.0     0.266782     0.672208     0.495485    Uiso  ? C
   H194       1.0     0.282381     0.687467     0.506569    Uiso  ? H
   C341       1.0     0.237256     0.681440     0.488132    Uiso  ? C
   H195       1.0     0.231396     0.704657     0.494270    Uiso  ? H
   C342       1.0     0.217679     0.661639     0.473002    Uiso  ? C
   C343       1.0     0.226951     0.633961     0.463502    Uiso  ? C
   H196       1.0     0.210397     0.619162     0.452673    Uiso  ? H
   C344       1.0     0.185924     0.671784     0.464988    Uiso  ? C
   C345       1.0     0.253670     0.366950     0.476275    Uiso  ? C
   C346       1.0     0.254376     0.363460     0.443143    Uiso  ? C
   C347       1.0     0.279882     0.354785     0.428258    Uiso  ? C
   H197       1.0     0.299510     0.352521     0.441729    Uiso  ? H
   C348       1.0     0.280218     0.351395     0.396737    Uiso  ? C
   H198       1.0     0.301215     0.346571     0.385518    Uiso  ? H
   C349       1.0     0.253961     0.356770     0.380639    Uiso  ? C
   H199       1.0     0.252335     0.349298     0.357619    Uiso  ? H
   C350       1.0     0.227016     0.364931     0.394301    Uiso  ? C
   C351       1.0     0.227878     0.367892     0.426768    Uiso  ? C
   H200       1.0     0.208226     0.374986     0.441514    Uiso  ? H
   C352       1.0     0.197016     0.366999     0.379446    Uiso  ? C
   C353       1.0     0.224237     0.318340     0.545739    Uiso  ? C
   C354       1.0     0.199541     0.296565     0.551002    Uiso  ? C
   C355       1.0     0.204699     0.267292     0.563865    Uiso  ? C
   H201       1.0     0.227560     0.261915     0.572583    Uiso  ? H
   C356       1.0     0.180977     0.246690     0.569121    Uiso  ? C
   H202       1.0     0.184442     0.223886     0.576857    Uiso  ? H
   C357       1.0     0.151345     0.255602     0.561652    Uiso  ? C
   H203       1.0     0.132186     0.240665     0.563421    Uiso  ? H
   C358       1.0     0.145287     0.283810     0.549781    Uiso  ? C
   C359       1.0     0.168990     0.305003     0.544438    Uiso  ? C
   H204       1.0     0.163844     0.327888     0.536151    Uiso  ? H
   C360       1.0     0.112761     0.292419     0.541366    Uiso  ? C
   C361       1.0     0.140063     0.678332     0.401129    Uiso  ? C
   C362       1.0     0.133347     0.669316     0.370263    Uiso  ? C
   C363       1.0     0.118203     0.690255     0.351181    Uiso  ? C
   H205       1.0     0.112401     0.712436     0.358891    Uiso  ? H
   C364       1.0     0.110036     0.681839     0.321426    Uiso  ? C
   H206       1.0     0.891858     0.697500     0.307624    Uiso  ? H
   C365       1.0     0.114575     0.653428     0.312384    Uiso  ? C
   H207       1.0     0.105467     0.647072     0.290304    Uiso  ? H
   C366       1.0     0.129320     0.631529     0.331012    Uiso  ? C
   C367       1.0     0.137055     0.639500     0.360567    Uiso  ? C
   H208       1.0     0.145835     0.621562     0.374745    Uiso  ? H
   C368       1.0     0.130836     0.599516     0.319590    Uiso  ? C
   C369       1.0     0.126811     0.720026     0.508590    Uiso  ? C
   C370       1.0     0.116777     0.726283     0.539735    Uiso  ? C
   C371       1.0     0.117978     0.755335     0.551381    Uiso  ? C
   H209       1.0     0.126588     0.773492     0.537333    Uiso  ? H
   C372       1.0     0.105717     0.760207     0.580764    Uiso  ? C
   H210       1.0     0.108209     0.784077     0.589978    Uiso  ? H
   C373       1.0     0.887392     0.738111     0.598132    Uiso  ? C
   H211       1.0     0.873602     0.743087     0.619374    Uiso  ? H
   C374       1.0     0.886202     0.709105     0.585597    Uiso  ? C
   C375       1.0     0.103637     0.703842     0.557290    Uiso  ? C
   H212       1.0     0.897159     0.681201     0.548945    Uiso  ? H
   C376       1.0     0.869797     0.684181     0.601587    Uiso  ? C
   C377       1.0     0.842166     0.599313     0.675384    Uiso  ? C
   C378       1.0     0.846098     0.575932     0.698233    Uiso  ? C
   C379       1.0     0.841183     0.584011     0.729694    Uiso  ? C
   H213       1.0     0.831215     0.605757     0.736364    Uiso  ? H
   C380       1.0     0.841429     0.561557     0.751359    Uiso  ? C
   H214       1.0     0.834768     0.567884     0.775658    Uiso  ? H
   C381       1.0     0.848024     0.531443     0.744312    Uiso  ? C
   H215       1.0     0.845579     0.515656     0.761445    Uiso  ? H
   C382       1.0     0.853315     0.522843     0.713106    Uiso  ? C
   C383       1.0     0.853913     0.546429     0.691834    Uiso  ? C
   H216       1.0     0.860524     0.541097     0.669937    Uiso  ? H
   C384       1.0     0.854265     0.491867     0.703534    Uiso  ? C
   O163       1.0     0.250149     0.534195     0.604840    Uiso  ? O
   O164       1.0     0.275919     0.563930     0.635637    Uiso  ? O
   O165       1.0     0.246746     0.503517     0.627316    Uiso  ? O
   O166       1.0     0.263374     0.502788     0.675294    Uiso  ? O
   O167       1.0     0.194489     0.511190     0.668426    Uiso  ? O
   O168       1.0     0.235014     0.512221     0.698360    Uiso  ? O
   O169       1.0     0.196182     0.579723     0.641382    Uiso  ? O
   O170       1.0     0.213787     0.575650     0.685855    Uiso  ? O
   O171       1.0     0.253778     0.547527     0.406930    Uiso  ? O
   O172       1.0     0.296386     0.524676     0.400831    Uiso  ? O
   O173       1.0     0.292107     0.497490     0.457382    Uiso  ? O
   O174       1.0     0.335700     0.520404     0.458783    Uiso  ? O
   O175       1.0     0.277911     0.547505     0.492328    Uiso  ? O
   O176       1.0     0.324420     0.554781     0.480121    Uiso  ? O
   O177       1.0     0.254597     0.571254     0.470821    Uiso  ? O
   O178       1.0     0.289031     0.593757     0.442306    Uiso  ? O
   O179       1.0     0.234353     0.383117     0.487787    Uiso  ? O
   O180       1.0     0.272168     0.353403     0.493289    Uiso  ? O
   O181       1.0     0.218155     0.345833     0.544318    Uiso  ? O
   O182       1.0     0.250663     0.308246     0.539519    Uiso  ? O
   O183       1.0     0.262600     0.413234     0.560942    Uiso  ? O
   O184       1.0     0.263615     0.370292     0.583649    Uiso  ? O
   O185       1.0     0.276444     0.414039     0.528920    Uiso  ? O
   O186       1.0     0.300376     0.375789     0.513390    Uiso  ? O
   O187       1.0     0.146225     0.657856     0.420707    Uiso  ? O
   O188       1.0     0.139112     0.706254     0.408949    Uiso  ? O
   O189       1.0     0.166103     0.654994     0.452889    Uiso  ? O
   O190       1.0     0.180003     0.698382     0.471044    Uiso  ? O
   O191       1.0     0.131802     0.691590     0.501618    Uiso  ? O
   O192       1.0     0.127147     0.740055     0.488525    Uiso  ? O
   O193       1.0     0.881196     0.691980     0.443811    Uiso  ? O
   O194       1.0     0.102841     0.738253     0.456552    Uiso  ? O
   O195       1.0     0.874608     0.657028     0.593990    Uiso  ? O
   O196       1.0     0.850347     0.690104     0.622099    Uiso  ? O
   O197       1.0     0.891660     0.633990     0.628469    Uiso  ? O
   O198       1.0     0.868491     0.652233     0.669335    Uiso  ? O
   O199       1.0     0.846901     0.592752     0.647007    Uiso  ? O
   O200       1.0     0.839816     0.627009     0.683329    Uiso  ? O
   O201       1.0     0.813189     0.636004     0.586477    Uiso  ? O
   O202       1.0     0.790365     0.637130     0.629376    Uiso  ? O
   O203       1.0     0.884993     0.533516     0.304259    Uiso  ? O
   O204       1.0     0.108744     0.537391     0.258293    Uiso  ? O
   O205       1.0     0.141918     0.498668     0.308091    Uiso  ? O
   O206       1.0     0.140466     0.516656     0.260855    Uiso  ? O
   O207       1.0     0.169447     0.518604     0.327191    Uiso  ? O
   O208       1.0     0.188054     0.549273     0.290904    Uiso  ? O
   O209       1.0     0.143802     0.580982     0.335841    Uiso  ? O
   O210       1.0     0.120805     0.591856     0.294152    Uiso  ? O
   O211       1.0     0.178875     0.528624     0.594430    Uiso  ? O
   O212       1.0     0.218536     0.512102     0.454373    Uiso  ? O
   O213       1.0     0.193007     0.416441     0.546177    Uiso  ? O
   O214       1.0     0.891299     0.631035     0.478174    Uiso  ? O
   O215       1.0     0.860384     0.583292     0.576729    Uiso  ? O
   O216       1.0     0.110506     0.530013     0.373967    Uiso  ? O
   Zn37       1.0     0.209145     0.535429     0.630296    Uiso  ? Zn
   Zn38       1.0     0.252292     0.549891     0.676352    Uiso  ? Zn
   Zn39       1.0     0.259634     0.532194     0.450302    Uiso  ? Zn
   Zn40       1.0     0.317516     0.554693     0.431459    Uiso  ? Zn
   Zn41       1.0     0.232944     0.391506     0.532481    Uiso  ? Zn
   Zn42       1.0     0.279643     0.345986     0.542791    Uiso  ? Zn
   Zn43       1.0     0.123284     0.667298     0.462721    Uiso  ? Zn
   Zn44       1.0     0.149509     0.726154     0.451991    Uiso  ? Zn
   Zn45       1.0     0.850699     0.618808     0.605622    Uiso  ? Zn
   Zn46       1.0     0.825782     0.660682     0.650346    Uiso  ? Zn
   Zn47       1.0     0.127100     0.537084     0.331955    Uiso  ? Zn
   Zn48       1.0     0.146281     0.561913     0.271517    Uiso  ? Zn
   H217       1.0     0.206671     0.513608     0.473009    Uiso  ? H
   H218       1.0     0.209944     0.497709     0.441018    Uiso  ? H
   H219       1.0     0.786465     0.511274     0.544206    Uiso  ? H
   H220       1.0     0.792388     0.493376     0.509558    Uiso  ? H
   H221       1.0     0.891019     0.443404     0.604032    Uiso  ? H
   H222       1.0     0.121119     0.467405     0.621450    Uiso  ? H
   H223       1.0     0.842820     0.378054     0.486337    Uiso  ? H
   H224       1.0     0.879286     0.378115     0.486869    Uiso  ? H
   H225       1.0     0.894028     0.545360     0.382356    Uiso  ? H
   H226       1.0     0.113743     0.511035     0.384264    Uiso  ? H
   H227       1.0     0.821699     0.449929     0.394660    Uiso  ? H
   H228       1.0     0.795318     0.440677     0.418623    Uiso  ? H
   H229       1.0     0.149559     0.393261     0.429501    Uiso  ? H
   H230       1.0     0.138900     0.420650     0.407843    Uiso  ? H
   H231       1.0     0.886517     0.633264     0.499719    Uiso  ? H
   H232       1.0     0.891676     0.610110     0.471450    Uiso  ? H
   H233       1.0     0.820120     0.622308     0.428204    Uiso  ? H
   H234       1.0     0.813351     0.589946     0.447158    Uiso  ? H
   H235       1.0     0.874833     0.586271     0.559356    Uiso  ? H
   H236       1.0     0.849804     0.564776     0.576372    Uiso  ? H
   H237       1.0     0.187062     0.431607     0.532161    Uiso  ? H
   H238       1.0     0.177421     0.407338     0.557398    Uiso  ? H
   H239       1.0     0.158621     0.533527     0.597901    Uiso  ? H
   H240       1.0     0.187397     0.519689     0.575716    Uiso  ? H
   C385       1.0     0.711357     0.217730     0.486039    Uiso  ? C
   C386       1.0     0.733884     0.198198     0.501812    Uiso  ? C
   C387       1.0     0.763361     0.207369     0.503414    Uiso  ? C
   H241       1.0     0.771948     0.227360     0.491134    Uiso  ? H
   C388       1.0     0.786163     0.187284     0.513383    Uiso  ? C
   H242       1.0     0.809900     0.190239     0.509253    Uiso  ? H
   C389       1.0     0.778106     0.158997     0.523619    Uiso  ? C
   H243       1.0     0.795093     0.142559     0.531459    Uiso  ? H
   C390       1.0     0.748132     0.148903     0.520213    Uiso  ? C
   C391       1.0     0.726257     0.168581     0.509806    Uiso  ? C
   H244       1.0     0.702784     0.160871     0.505518    Uiso  ? H
   C392       1.0     0.739825     0.118346     0.529544    Uiso  ? C
   C393       1.0     0.659800     0.219276     0.405049    Uiso  ? C
   C394       1.0     0.662572     0.199927     0.378411    Uiso  ? C
   C395       1.0     0.676130     0.211923     0.352724    Uiso  ? C
   H245       1.0     0.683212     0.234914     0.352233    Uiso  ? H
   C396       1.0     0.681728     0.193925     0.328578    Uiso  ? C
   H246       1.0     0.691763     0.204611     0.307818    Uiso  ? H
   C397       1.0     0.676858     0.162016     0.330762    Uiso  ? C
   H247       1.0     0.683208     0.148496     0.311380    Uiso  ? H
   C398       1.0     0.663138     0.149297     0.355869    Uiso  ? C
   C399       1.0     0.653606     0.168418     0.378911    Uiso  ? C
   H248       1.0     0.640142     0.160550     0.397903    Uiso  ? H
   C400       1.0     0.654174     0.117298     0.356798    Uiso  ? C
   C401       1.0     0.635785     0.292444     0.450422    Uiso  ? C
   C402       1.0     0.612983     0.316229     0.450298    Uiso  ? C
   C403       1.0     0.621184     0.346765     0.444938    Uiso  ? C
   H249       1.0     0.643862     0.354154     0.445013    Uiso  ? H
   C404       1.0     0.600512     0.369252     0.441404    Uiso  ? C
   H250       1.0     0.605402     0.392952     0.440258    Uiso  ? H
   C405       1.0     0.569622     0.362910     0.444232    Uiso  ? C
   H251       1.0     0.553698     0.380408     0.439746    Uiso  ? H
   C406       1.0     0.559526     0.332052     0.449824    Uiso  ? C
   C407       1.0     0.582714     0.308968     0.450866    Uiso  ? C
   H252       1.0     0.574630     0.285073     0.454288    Uiso  ? H
   C408       1.0     0.527434     0.323052     0.446062    Uiso  ? C
   C409       1.0     0.659351     0.266124     0.512138    Uiso  ? C
   C410       1.0     0.656852     0.274007     0.544077    Uiso  ? C
   C411       1.0     0.682389     0.285055     0.559325    Uiso  ? C
   H253       1.0     0.704333     0.289383     0.548755    Uiso  ? H
   C412       1.0     0.681198     0.292965     0.589707    Uiso  ? C
   H254       1.0     0.702125     0.298983     0.602609    Uiso  ? H
   C413       1.0     0.654657     0.288747     0.605322    Uiso  ? C
   H255       1.0     0.652395     0.294537     0.627912    Uiso  ? H
   C414       1.0     0.628188     0.278029     0.590618    Uiso  ? C
   C415       1.0     0.629886     0.273402     0.560482    Uiso  ? C
   H256       1.0     0.610152     0.263873     0.548169    Uiso  ? H
   C416       1.0     0.601647     0.269699     0.607282    Uiso  ? C
   C417       1.0     0.693829     0.809184     0.531292    Uiso  ? C
   C418       1.0     0.684318     0.777279     0.526114    Uiso  ? C
   C419       1.0     0.707013     0.756841     0.519652    Uiso  ? C
   H257       1.0     0.729054     0.763570     0.516882    Uiso  ? H
   C420       1.0     0.699825     0.725726     0.517867    Uiso  ? C
   H258       1.0     0.718180     0.709267     0.515113    Uiso  ? H
   C421       1.0     0.670505     0.715675     0.524363    Uiso  ? C
   H259       1.0     0.666663     0.692057     0.528229    Uiso  ? H
   C422       1.0     0.646918     0.737119     0.527115    Uiso  ? C
   C423       1.0     0.654614     0.767882     0.527284    Uiso  ? C
   H260       1.0     0.638045     0.785072     0.532598    Uiso  ? H
   C424       1.0     0.614932     0.727997     0.535228    Uiso  ? C
   C425       1.0     0.728714     0.854733     0.489551    Uiso  ? C
   C426       1.0     0.738302     0.849227     0.457660    Uiso  ? C
   C427       1.0     0.767570     0.843053     0.448288    Uiso  ? C
   H261       1.0     0.786233     0.845543     0.465572    Uiso  ? H
   C428       1.0     0.773493     0.837347     0.418343    Uiso  ? C
   H262       1.0     0.796487     0.832763     0.410065    Uiso  ? H
   C429       1.0     0.750796     0.837469     0.395810    Uiso  ? C
   H263       1.0     0.756198     0.829888     0.371897    Uiso  ? H
   C430       1.0     0.722213     0.845225     0.404298    Uiso  ? C
   C431       1.0     0.716525     0.852288     0.435483    Uiso  ? C
   H264       1.0     0.693281     0.859654     0.439893    Uiso  ? H
   C432       1.0     0.697526     0.847389     0.382721    Uiso  ? C
   C433       1.0     0.689871     0.874997     0.597241    Uiso  ? C
   C434       1.0     0.678606     0.885774     0.626256    Uiso  ? C
   C435       1.0     0.692286     0.116480     0.643694    Uiso  ? C
   H265       1.0     0.710685     0.128331     0.635547    Uiso  ? H
   C436       1.0     0.678787     0.126814     0.670009    Uiso  ? C
   H266       1.0     0.685587     0.147265     0.680518    Uiso  ? H
   C437       1.0     0.653475     0.113366     0.681384    Uiso  ? C
   H267       1.0     0.639353     0.123010     0.699154    Uiso  ? H
   C438       1.0     0.640691     0.881822     0.666583    Uiso  ? C
   C439       1.0     0.653049     0.870889     0.639789    Uiso  ? C
   H268       1.0     0.640636     0.854254     0.626247    Uiso  ? H
   C440       1.0     0.609821     0.872215     0.675015    Uiso  ? C
   C441       1.0     0.611948     0.806076     0.361704    Uiso  ? C
   C442       1.0     0.598850     0.774735     0.360468    Uiso  ? C
   C443       1.0     0.618097     0.748897     0.356523    Uiso  ? C
   H269       1.0     0.642393     0.752265     0.356595    Uiso  ? H
   C444       1.0     0.605851     0.720270     0.352321    Uiso  ? C
   H270       1.0     0.619369     0.702223     0.348845    Uiso  ? H
   C445       1.0     0.574537     0.716061     0.355704    Uiso  ? C
   H271       1.0     0.565817     0.693115     0.355591    Uiso  ? H
   C446       1.0     0.555940     0.742591     0.358873    Uiso  ? C
   C447       1.0     0.568630     0.771024     0.360373    Uiso  ? C
   H272       1.0     0.554972     0.790433     0.360181    Uiso  ? H
   C448       1.0     0.522698     0.738729     0.360865    Uiso  ? C
   C449       1.0     0.603399     0.873330     0.319635    Uiso  ? C
   C450       1.0     0.582364     0.891081     0.301584    Uiso  ? C
   C451       1.0     0.590840     0.103839     0.270685    Uiso  ? C
   H273       1.0     0.610470     0.890470     0.261446    Uiso  ? H
   C452       1.0     0.568862     0.115834     0.250484    Uiso  ? C
   H274       1.0     0.576815     0.123945     0.229183    Uiso  ? H
   C453       1.0     0.540548     0.123979     0.262109    Uiso  ? C
   H275       1.0     0.525691     0.136495     0.248120    Uiso  ? H
   C454       1.0     0.532049     0.117220     0.292181    Uiso  ? C
   C455       1.0     0.551848     0.896343     0.311522    Uiso  ? C
   H276       1.0     0.544922     0.887192     0.332357    Uiso  ? H
   C456       1.0     0.499641     0.121523     0.301591    Uiso  ? C
   C457       1.0     0.540850     0.801901     0.680216    Uiso  ? C
   C458       1.0     0.534284     0.770557     0.673736    Uiso  ? C
   C459       1.0     0.520830     0.751238     0.694295    Uiso  ? C
   H277       1.0     0.513660     0.759580     0.716461    Uiso  ? H
   C460       1.0     0.515974     0.720876     0.686683    Uiso  ? C
   H278       1.0     0.504234     0.706696     0.702318    Uiso  ? H
   C461       1.0     0.525310     0.709770     0.657963    Uiso  ? C
   H279       1.0     0.524170     0.686495     0.654051    Uiso  ? H
   C462       1.0     0.537636     0.729567     0.636941    Uiso  ? C
   C463       1.0     0.543774     0.759742     0.645320    Uiso  ? C
   H280       1.0     0.553382     0.775053     0.628947    Uiso  ? H
   C464       1.0     0.546426     0.718492     0.607309    Uiso  ? C
   C465       1.0     0.563266     0.114659     0.716959    Uiso  ? C
   C466       1.0     0.564956     0.147060     0.727073    Uiso  ? C
   C467       1.0     0.567768     0.154939     0.757255    Uiso  ? C
   H281       1.0     0.563156     0.138272     0.773928    Uiso  ? H
   C468       1.0     0.569358     0.185729     0.766324    Uiso  ? C
   H282       1.0     0.567491     0.191924     0.789746    Uiso  ? H
   C469       1.0     0.568413     0.208467     0.745546    Uiso  ? C
   H283       1.0     0.566018     0.231532     0.752238    Uiso  ? H
   C470       1.0     0.567132     0.201284     0.714769    Uiso  ? C
   C471       1.0     0.568104     0.171132     0.705388    Uiso  ? C
   H284       1.0     0.572476     0.164379     0.682742    Uiso  ? H
   C472       1.0     0.563853     0.226236     0.691972    Uiso  ? C
   C473       1.0     0.528470     0.289715     0.601968    Uiso  ? C
   C474       1.0     0.508682     0.306936     0.582286    Uiso  ? C
   C475       1.0     0.490966     0.330087     0.595249    Uiso  ? C
   H285       1.0     0.490186     0.334846     0.619909    Uiso  ? H
   C476       1.0     0.473484     0.348885     0.576526    Uiso  ? C
   H286       1.0     0.461128     0.368445     0.585234    Uiso  ? H
   C477       1.0     0.469324     0.341049     0.545669    Uiso  ? C
   H287       1.0     0.456975     0.356398     0.530363    Uiso  ? H
   C478       1.0     0.485330     0.316772     0.533413    Uiso  ? C
   C479       1.0     0.507425     0.301536     0.552287    Uiso  ? C
   H288       1.0     0.523349     0.286710     0.542388    Uiso  ? H
   C480       1.0     0.482765     0.307346     0.500574    Uiso  ? C
   O217       1.0     0.689259     0.204939     0.471392    Uiso  ? O
   O218       1.0     0.713642     0.245988     0.485884    Uiso  ? O
   O219       1.0     0.635934     0.218186     0.419484    Uiso  ? O
   O220       1.0     0.682385     0.233039     0.415609    Uiso  ? O
   O221       1.0     0.629052     0.267204     0.462478    Uiso  ? O
   O222       1.0     0.663176     0.298132     0.442717    Uiso  ? O
   O223       1.0     0.636567     0.256657     0.497342    Uiso  ? O
   O224       1.0     0.684705     0.268939     0.497809    Uiso  ? O
   O225       1.0     0.679137     0.830161     0.517209    Uiso  ? O
   O226       1.0     0.715595     0.816111     0.548511    Uiso  ? O
   O227       1.0     0.700470     0.857056     0.494565    Uiso  ? O
   O228       1.0     0.747728     0.858073     0.511184    Uiso  ? O
   O229       1.0     0.711605     0.112451     0.531588    Uiso  ? O
   O230       1.0     0.757795     0.891279     0.534755    Uiso  ? O
   O231       1.0     0.674364     0.859990     0.579318    Uiso  ? O
   O232       1.0     0.716437     0.882176     0.590420    Uiso  ? O
   O233       1.0     0.595094     0.829567     0.362865    Uiso  ? O
   O234       1.0     0.639125     0.809188     0.355205    Uiso  ? O
   O235       1.0     0.594668     0.858935     0.343407    Uiso  ? O
   O236       1.0     0.631010     0.875082     0.312905    Uiso  ? O
   O237       1.0     0.635620     0.109614     0.376593    Uiso  ? O
   O238       1.0     0.662594     0.892486     0.337021    Uiso  ? O
   O239       1.0     0.670011     0.850185     0.392542    Uiso  ? O
   O240       1.0     0.702685     0.848031     0.354369    Uiso  ? O
   O241       1.0     0.552176     0.818384     0.659796    Uiso  ? O
   O242       1.0     0.533736     0.813562     0.705465    Uiso  ? O
   O243       1.0     0.588120     0.889044     0.666604    Uiso  ? O
   O244       1.0     0.603316     0.847366     0.688128    Uiso  ? O
   O245       1.0     0.560625     0.108310     0.688816    Uiso  ? O
   O246       1.0     0.562878     0.888381     0.736057    Uiso  ? O
   O247       1.0     0.511909     0.879460     0.685889    Uiso  ? O
   O248       1.0     0.517138     0.841504     0.717897    Uiso  ? O
   O249       1.0     0.563034     0.217808     0.664925    Uiso  ? O
   O250       1.0     0.564568     0.254108     0.699963    Uiso  ? O
   O251       1.0     0.578766     0.258931     0.593799    Uiso  ? O
   O252       1.0     0.601369     0.269090     0.636205    Uiso  ? O
   O253       1.0     0.540451     0.266097     0.592653    Uiso  ? O
   O254       1.0     0.527497     0.295101     0.631040    Uiso  ? O
   O255       1.0     0.513283     0.225923     0.636185    Uiso  ? O
   O256       1.0     0.514438     0.269554     0.656526    Uiso  ? O
   O257       1.0     0.511862     0.715089     0.536758    Uiso  ? O
   O258       1.0     0.524378     0.680472     0.570059    Uiso  ? O
   O259       1.0     0.542957     0.708139     0.506366    Uiso  ? O
   O260       1.0     0.560792     0.662234     0.520179    Uiso  ? O
   O261       1.0     0.592264     0.736415     0.520301    Uiso  ? O
   O262       1.0     0.610398     0.709484     0.556986    Uiso  ? O
   O263       1.0     0.556051     0.738149     0.588609    Uiso  ? O
   O264       1.0     0.544344     0.691644     0.599604    Uiso  ? O
   O265       1.0     0.623979     0.189854     0.490429    Uiso  ? O
   O266       1.0     0.635462     0.891812     0.526423    Uiso  ? O
   O267       1.0     0.607362     0.853664     0.426819    Uiso  ? O
   O268       1.0     0.544563     0.866107     0.616296    Uiso  ? O
   O269       1.0     0.559260     0.188306     0.590379    Uiso  ? O
   O270       1.0     0.540523     0.782925     0.533909    Uiso  ? O
   Zn49       1.0     0.646614     0.221313     0.463533    Uiso  ? Zn
   Zn50       1.0     0.694391     0.265605     0.449095    Uiso  ? Zn
   Zn51       1.0     0.679376     0.873826     0.534962    Uiso  ? Zn
   Zn52       1.0     0.740704     0.854579     0.560498    Uiso  ? Zn
   Zn53       1.0     0.623124     0.861441     0.383398    Uiso  ? Zn
   Zn54       1.0     0.662461     0.842611     0.332072    Uiso  ? Zn
   Zn55       1.0     0.548686     0.866665     0.662226    Uiso  ? Zn
   Zn56       1.0     0.566672     0.843426     0.720593    Uiso  ? Zn
   Zn57       1.0     0.555972     0.226886     0.615896    Uiso  ? Zn
   Zn58       1.0     0.562628     0.278753     0.659275    Uiso  ? Zn
   Zn59       1.0     0.551968     0.737895     0.542843    Uiso  ? Zn
   Zn60       1.0     0.573558     0.678842     0.562683    Uiso  ? Zn
   C481       1.0     0.333952     0.807528     0.490846    Uiso  ? C
   C482       1.0     0.313745     0.828241     0.475878    Uiso  ? C
   C483       1.0     0.285701     0.818811     0.463919    Uiso  ? C
   H289       1.0     0.280180     0.795772     0.464979    Uiso  ? H
   C484       1.0     0.266166     0.840006     0.451121    Uiso  ? C
   H290       1.0     0.245349     0.831640     0.441979    Uiso  ? H
   C485       1.0     0.272662     0.870355     0.452098    Uiso  ? C
   H291       1.0     0.259307     0.885194     0.436841    Uiso  ? H
   C486       1.0     0.298795     0.879580     0.467032    Uiso  ? C
   C487       1.0     0.319562     0.858919     0.478833    Uiso  ? C
   H292       1.0     0.339104     0.866714     0.490595    Uiso  ? H
   C488       1.0     0.308210     0.117924     0.468130    Uiso  ? C
   C489       1.0     0.356226     0.783207     0.584955    Uiso  ? C
   C490       1.0     0.347971     0.798738     0.613963    Uiso  ? C
   C491       1.0     0.334042     0.782857     0.637681    Uiso  ? C
   H293       1.0     0.330528     0.758524     0.637139    Uiso  ? H
   C492       1.0     0.323265     0.798095     0.663644    Uiso  ? C
   H294       1.0     0.310364     0.785446     0.679873    Uiso  ? H
   C493       1.0     0.328622     0.829644     0.667934    Uiso  ? C
   H295       1.0     0.323651     0.841238     0.688325    Uiso  ? H
   C494       1.0     0.342332     0.845805     0.643698    Uiso  ? C
   C495       1.0     0.350776     0.831011     0.616941    Uiso  ? C
   H296       1.0     0.359587     0.842535     0.597809    Uiso  ? H
   C496       1.0     0.350001     0.878436     0.645870    Uiso  ? C
   C497       1.0     0.393774     0.725814     0.545112    Uiso  ? C
   C498       1.0     0.416979     0.702139     0.553415    Uiso  ? C
   C499       1.0     0.409762     0.677193     0.569687    Uiso  ? C
   H297       1.0     0.386958     0.672966     0.577159    Uiso  ? H
   C500       1.0     0.432238     0.656327     0.579861    Uiso  ? C
   H298       1.0     0.426130     0.636115     0.589256    Uiso  ? H
   C501       1.0     0.461899     0.662753     0.575968    Uiso  ? C
   H299       1.0     0.478545     0.646204     0.585827    Uiso  ? H
   C502       1.0     0.471002     0.687893     0.557913    Uiso  ? C
   C503       1.0     0.447892     0.707907     0.548563    Uiso  ? C
   H300       1.0     0.452895     0.730386     0.539911    Uiso  ? H
   C504       1.0     0.504243     0.694872     0.555524    Uiso  ? C
   C505       1.0     0.357166     0.725408     0.484478    Uiso  ? C
   C506       1.0     0.363489     0.706826     0.457294    Uiso  ? C
   C507       1.0     0.344968     0.683693     0.446630    Uiso  ? C
   H301       1.0     0.325647     0.676744     0.458433    Uiso  ? H
   C508       1.0     0.351492     0.669603     0.418993    Uiso  ? C
   H302       1.0     0.338831     0.651443     0.410638    Uiso  ? H
   C509       1.0     0.376510     0.676988     0.401451    Uiso  ? C
   H303       1.0     0.378827     0.666714     0.378350    Uiso  ? H
   C510       1.0     0.394478     0.701181     0.411811    Uiso  ? C
   C511       1.0     0.389818     0.712820     0.440651    Uiso  ? C
   H304       1.0     0.405738     0.728796     0.449826    Uiso  ? H
   C512       1.0     0.421545     0.710607     0.397346    Uiso  ? C
   C513       1.0     0.331061     0.226827     0.462820    Uiso  ? C
   C514       1.0     0.343620     0.257345     0.463671    Uiso  ? C
   C515       1.0     0.326642     0.282183     0.472939    Uiso  ? C
   H305       1.0     0.303094     0.278389     0.477218    Uiso  ? H
   C516       1.0     0.339948     0.310888     0.476006    Uiso  ? C
   H306       1.0     0.326076     0.331282     0.480887    Uiso  ? H
   C517       1.0     0.371503     0.313675     0.473530    Uiso  ? C
   H307       1.0     0.382896     0.335809     0.479031    Uiso  ? H
   C518       1.0     0.387957     0.289020     0.462827    Uiso  ? C
   C519       1.0     0.374363     0.261459     0.459029    Uiso  ? C
   H308       1.0     0.385785     0.243158     0.447336    Uiso  ? H
   C520       1.0     0.420467     0.291404     0.459144    Uiso  ? C
   C521       1.0     0.281134     0.185175     0.525617    Uiso  ? C
   C522       1.0     0.273670     0.184828     0.558564    Uiso  ? C
   C523       1.0     0.245473     0.190968     0.570611    Uiso  ? C
   H309       1.0     0.226813     0.199443     0.556083    Uiso  ? H
   C524       1.0     0.239690     0.187076     0.602203    Uiso  ? C
   H310       1.0     0.218627     0.191160     0.612305    Uiso  ? H
   C525       1.0     0.262176     0.177647     0.621831    Uiso  ? C
   H311       1.0     0.258057     0.175979     0.645437    Uiso  ? H
   C526       1.0     0.291144     0.174179     0.609908    Uiso  ? C
   C527       1.0     0.296830     0.176422     0.579201    Uiso  ? C
   H312       1.0     0.318962     0.171675     0.569224    Uiso  ? H
   C528       1.0     0.314780     0.161964     0.629989    Uiso  ? C
   C529       1.0     0.317015     0.162084     0.417310    Uiso  ? C
   C530       1.0     0.321786     0.149741     0.386937    Uiso  ? C
   C531       1.0     0.297040     0.139107     0.370180    Uiso  ? C
   H313       1.0     0.273939     0.140785     0.380946    Uiso  ? H
   C532       1.0     0.301465     0.125447     0.342168    Uiso  ? C
   H314       1.0     0.283344     0.121241     0.326352    Uiso  ? H
   C533       1.0     0.331257     0.122803     0.330487    Uiso  ? C
   H315       1.0     0.334473     0.112185     0.308903    Uiso  ? H
   C534       1.0     0.357259     0.133714     0.346891    Uiso  ? C
   C535       1.0     0.351519     0.145609     0.375828    Uiso  ? C
   H316       1.0     0.371690     0.151400     0.387622    Uiso  ? H
   C536       1.0     0.387630     0.131663     0.334281    Uiso  ? C
   C537       1.0     0.403160     0.185840     0.663265    Uiso  ? C
   C538       1.0     0.420232     0.214233     0.667655    Uiso  ? C
   C539       1.0     0.406196     0.239479     0.680250    Uiso  ? C
   H317       1.0     0.383006     0.240081     0.689599    Uiso  ? H
   C540       1.0     0.423566     0.266818     0.683701    Uiso  ? C
   H318       1.0     0.411690     0.287177     0.692128    Uiso  ? H
   C541       1.0     0.453968     0.268539     0.674027    Uiso  ? C
   H319       1.0     0.467590     0.287364     0.681005    Uiso  ? H
   C542       1.0     0.466345     0.244563     0.659259    Uiso  ? C
   C543       1.0     0.451354     0.216991     0.659023    Uiso  ? C
   H320       1.0     0.462937     0.197276     0.650465    Uiso  ? H
   C544       1.0     0.498859     0.246363     0.649698    Uiso  ? C
   C545       1.0     0.398423     0.110302     0.686383    Uiso  ? C
   C546       1.0     0.416452     0.885124     0.703687    Uiso  ? C
   C547       1.0     0.404829     0.864738     0.723378    Uiso  ? C
   H321       1.0     0.381188     0.864892     0.727456    Uiso  ? H
   C548       1.0     0.422855     0.843547     0.739607    Uiso  ? C
   H322       1.0     0.412509     0.829782     0.756212    Uiso  ? H
   C549       1.0     0.454961     0.844808     0.734936    Uiso  ? C
   H323       1.0     0.469563     0.832964     0.750912    Uiso  ? H
   C550       1.0     0.467283     0.862681     0.712394    Uiso  ? C
   C551       1.0     0.448077     0.882724     0.696185    Uiso  ? C
   H324       1.0     0.457988     0.102944     0.678484    Uiso  ? H
   C552       1.0     0.500050     0.861265     0.704853    Uiso  ? C
   C553       1.0     0.451956     0.176896     0.325281    Uiso  ? C
   C554       1.0     0.458705     0.209081     0.331964    Uiso  ? C
   C555       1.0     0.457658     0.230150     0.307667    Uiso  ? C
   H325       1.0     0.452832     0.221984     0.284618    Uiso  ? H
   C556       1.0     0.465524     0.260410     0.311734    Uiso  ? C
   H326       1.0     0.463214     0.275284     0.292632    Uiso  ? H
   C557       1.0     0.475660     0.269929     0.340014    Uiso  ? C
   H327       1.0     0.482677     0.292913     0.342825    Uiso  ? H
   C558       1.0     0.476179     0.250206     0.364652    Uiso  ? C
   C559       1.0     0.467064     0.219493     0.359719    Uiso  ? C
   H328       1.0     0.462907     0.205978     0.379446    Uiso  ? H
   C560       1.0     0.482273     0.263171     0.395429    Uiso  ? C
   C561       1.0     0.439871     0.866958     0.283429    Uiso  ? C
   C562       1.0     0.443570     0.833912     0.275013    Uiso  ? C
   C563       1.0     0.441306     0.824628     0.245172    Uiso  ? C
   H329       1.0     0.436745     0.840883     0.226873    Uiso  ? H
   C564       1.0     0.439661     0.793316     0.238712    Uiso  ? C
   H330       1.0     0.437176     0.785532     0.214659    Uiso  ? H
   C565       1.0     0.442433     0.772211     0.262012    Uiso  ? C
   H331       1.0     0.442057     0.747061     0.254479    Uiso  ? H
   C566       1.0     0.447847     0.780980     0.291533    Uiso  ? C
   C567       1.0     0.448102     0.812504     0.296592    Uiso  ? C
   H332       1.0     0.446672     0.818125     0.321025    Uiso  ? H
   C568       1.0     0.453953     0.758337     0.314876    Uiso  ? C
   C569       1.0     0.498026     0.693088     0.400998    Uiso  ? C
   C570       1.0     0.514857     0.673395     0.422595    Uiso  ? C
   C571       1.0     0.520636     0.642841     0.416239    Uiso  ? C
   H333       1.0     0.512947     0.633444     0.394890    Uiso  ? H
   C572       1.0     0.532451     0.623901     0.438072    Uiso  ? C
   H334       1.0     0.535196     0.599171     0.434635    Uiso  ? H
   C573       1.0     0.542109     0.636345     0.465836    Uiso  ? C
   H335       1.0     0.552918     0.621169     0.481542    Uiso  ? H
   C574       1.0     0.539626     0.666829     0.471405    Uiso  ? C
   C575       1.0     0.524818     0.685750     0.449551    Uiso  ? C
   H336       1.0     0.520072     0.710478     0.455736    Uiso  ? H
   C576       1.0     0.549762     0.680159     0.499902    Uiso  ? C
   O271       1.0     0.360701     0.810361     0.486272    Uiso  ? O
   O272       1.0     0.324510     0.786191     0.508281    Uiso  ? O
   O273       1.0     0.366509     0.800322     0.563274    Uiso  ? O
   O274       1.0     0.352335     0.755596     0.579866    Uiso  ? O
   O275       1.0     0.398243     0.742367     0.521925    Uiso  ? O
   O276       1.0     0.368526     0.727862     0.557931    Uiso  ? O
   O277       1.0     0.374728     0.748175     0.489341    Uiso  ? O
   O278       1.0     0.336237     0.718522     0.503935    Uiso  ? O
   O279       1.0     0.344808     0.204581     0.450893    Uiso  ? O
   O280       1.0     0.306401     0.222421     0.475172    Uiso  ? O
   O281       1.0     0.309439     0.182517     0.517922    Uiso  ? O
   O282       1.0     0.259778     0.185952     0.506172    Uiso  ? O
   O283       1.0     0.333609     0.126110     0.476965    Uiso  ? O
   O284       1.0     0.287125     0.136861     0.462848    Uiso  ? O
   O285       1.0     0.338242     0.174097     0.432668    Uiso  ? O
   O286       1.0     0.292184     0.157290     0.431024    Uiso  ? O
   O287       1.0     0.415809     0.160861     0.657302    Uiso  ? O
   O288       1.0     0.374979     0.185714     0.668056    Uiso  ? O
   O289       1.0     0.409358     0.126731     0.665706    Uiso  ? O
   O290       1.0     0.369978     0.111629     0.692123    Uiso  ? O
   O291       1.0     0.368769     0.890770     0.627282    Uiso  ? O
   O292       1.0     0.341484     0.894505     0.668408    Uiso  ? O
   O293       1.0     0.341698     0.158465     0.619449    Uiso  ? O
   O294       1.0     0.310116     0.158725     0.657665    Uiso  ? O
   O295       1.0     0.440715     0.160469     0.344843    Uiso  ? O
   O296       1.0     0.456427     0.166718     0.298999    Uiso  ? O
   O297       1.0     0.409482     0.139221     0.349654    Uiso  ? O
   O298       1.0     0.392162     0.121734     0.306894    Uiso  ? O
   O299       1.0     0.432983     0.873003     0.311405    Uiso  ? O
   O300       1.0     0.448433     0.887957     0.265215    Uiso  ? O
   O301       1.0     0.493502     0.122474     0.329833    Uiso  ? O
   O302       1.0     0.478642     0.122313     0.281293    Uiso  ? O
   O303       1.0     0.450535     0.767167     0.342204    Uiso  ? O
   O304       1.0     0.462695     0.731805     0.308421    Uiso  ? O
   O305       1.0     0.443225     0.723082     0.410460    Uiso  ? O
   O306       1.0     0.424335     0.706098     0.369898    Uiso  ? O
   O307       1.0     0.483816     0.717443     0.408890    Uiso  ? O
   O308       1.0     0.496389     0.685978     0.373737    Uiso  ? O
   O309       1.0     0.508036     0.756228     0.379013    Uiso  ? O
   O310       1.0     0.508124     0.716464     0.347543    Uiso  ? O
   O311       1.0     0.520350     0.295845     0.451207    Uiso  ? O
   O312       1.0     0.506728     0.340264     0.435418    Uiso  ? O
   O313       1.0     0.500388     0.287423     0.488807    Uiso  ? O
   O314       1.0     0.465515     0.322014     0.482193    Uiso  ? O
   O315       1.0     0.435295     0.271210     0.446912    Uiso  ? O
   O316       1.0     0.435105     0.315006     0.468426    Uiso  ? O
   O317       1.0     0.495850     0.247215     0.414707    Uiso  ? O
   O318       1.0     0.470779     0.287484     0.403014    Uiso  ? O
   O319       1.0     0.421570     0.811369     0.514466    Uiso  ? O
   O320       1.0     0.378245     0.175309     0.506565    Uiso  ? O
   O321       1.0     0.406308     0.140196     0.585374    Uiso  ? O
   O322       1.0     0.445672     0.884308     0.382473    Uiso  ? O
   O323       1.0     0.455606     0.792233     0.410692    Uiso  ? O
   O324       1.0     0.482537     0.228875     0.482281    Uiso  ? O
   Zn61       1.0     0.382467     0.786080     0.519076    Uiso  ? Zn
   Zn62       1.0     0.328832     0.748751     0.538458    Uiso  ? Zn
   Zn63       1.0     0.341166     0.172119     0.482850    Uiso  ? Zn
   Zn64       1.0     0.279977     0.186036     0.464812    Uiso  ? Zn
   Zn65       1.0     0.384493     0.139273     0.626885    Uiso  ? Zn
   Zn66       1.0     0.346511     0.149993     0.681017    Uiso  ? Zn
   Zn67       1.0     0.446356     0.113793     0.343982    Uiso  ? Zn
   Zn68       1.0     0.429399     0.132760     0.280046    Uiso  ? Zn
   Zn69       1.0     0.464019     0.754126     0.384963    Uiso  ? Zn
   Zn70       1.0     0.463158     0.701670     0.343113    Uiso  ? Zn
   Zn71       1.0     0.482655     0.263164     0.452519    Uiso  ? Zn
   Zn72       1.0     0.463480     0.323304     0.432048    Uiso  ? Zn
   H337       1.0     0.383924     0.192003     0.521131    Uiso  ? H
   H338       1.0     0.389910     0.157472     0.507923    Uiso  ? H
   H339       1.0     0.622517     0.891020     0.544219    Uiso  ? H
   H340       1.0     0.627166     0.895987     0.507002    Uiso  ? H
   H341       1.0     0.521031     0.787084     0.524939    Uiso  ? H
   H342       1.0     0.550206     0.793454     0.550305    Uiso  ? H
   H343       1.0     0.560476     0.864136     0.600525    Uiso  ? H
   H344       1.0     0.525943     0.875209     0.611327    Uiso  ? H
   H345       1.0     0.500264     0.222758     0.492686    Uiso  ? H
   H346       1.0     0.463090     0.219078     0.484873    Uiso  ? H
   H347       1.0     0.634919     0.179924     0.506129    Uiso  ? H
   H348       1.0     0.604500     0.183692     0.485696    Uiso  ? H
   H349       1.0     0.554557     0.191593     0.570149    Uiso  ? H
   H350       1.0     0.565147     0.168573     0.597665    Uiso  ? H
   H351       1.0     0.462073     0.871469     0.388831    Uiso  ? H
   H352       1.0     0.426211     0.886762     0.392950    Uiso  ? H
   H353       1.0     0.598015     0.833769     0.428847    Uiso  ? H
   H354       1.0     0.615739     0.864348     0.443574    Uiso  ? H
   H355       1.0     0.469530     0.798384     0.425482    Uiso  ? H
   H356       1.0     0.438317     0.803770     0.407246    Uiso  ? H
   H357       1.0     0.415640     0.159248     0.578546    Uiso  ? H
   H358       1.0     0.409324     0.121537     0.574929    Uiso  ? H
   H359       1.0     0.429717     0.818817     0.532465    Uiso  ? H
   H360       1.0     0.430711     0.815608     0.494673    Uiso  ? H
   C577       1.0     0.270138     0.449126     0.113956    Uiso  ? C
   C578       1.0     0.261348     0.446742     0.145900    Uiso  ? C
   C579       1.0     0.231408     0.448296     0.154274    Uiso  ? C
   H361       1.0     0.214332     0.454463     0.138147    Uiso  ? H
   C580       1.0     0.223068     0.449413     0.184441    Uiso  ? C
   H362       1.0     0.199662     0.451046     0.190835    Uiso  ? H
   C581       1.0     0.245442     0.446995     0.207331    Uiso  ? C
   H363       1.0     0.237888     0.446142     0.230509    Uiso  ? H
   C582       1.0     0.275926     0.443386     0.199273    Uiso  ? C
   C583       1.0     0.283511     0.445163     0.169189    Uiso  ? C
   H364       1.0     0.306996     0.443627     0.160783    Uiso  ? H
   C584       1.0     0.300335     0.441854     0.221595    Uiso  ? C
   C585       1.0     0.281856     0.503664     0.873484    Uiso  ? C
   C586       1.0     0.271992     0.535584     0.878692    Uiso  ? C
   C587       1.0     0.252515     0.548012     0.858583    Uiso  ? C
   H365       1.0     0.242708     0.534177     0.839677    Uiso  ? H
   C588       1.0     0.246951     0.579516     0.860144    Uiso  ? C
   H366       1.0     0.229682     0.591085     0.846918    Uiso  ? H
   C589       1.0     0.262401     0.597434     0.880390    Uiso  ? C
   H367       1.0     0.256990     0.621846     0.880099    Uiso  ? H
   C590       1.0     0.285552     0.585838     0.898401    Uiso  ? C
   C591       1.0     0.288234     0.554256     0.898823    Uiso  ? C
   H368       1.0     0.301887     0.544654     0.116906    Uiso  ? H
   C592       1.0     0.304587     0.607074     0.116516    Uiso  ? C
   C593       1.0     0.314967     0.466986     0.812392    Uiso  ? C
   C594       1.0     0.324621     0.477332     0.781495    Uiso  ? C
   C595       1.0     0.305510     0.489639     0.760306    Uiso  ? C
   H369       1.0     0.283207     0.494889     0.767919    Uiso  ? H
   C596       1.0     0.313722     0.496279     0.730810    Uiso  ? C
   H370       1.0     0.300701     0.508842     0.715317    Uiso  ? H
   C597       1.0     0.342785     0.486975     0.721168    Uiso  ? C
   H371       1.0     0.349353     0.493662     0.699873    Uiso  ? H
   C598       1.0     0.362305     0.473220     0.739984    Uiso  ? C
   C599       1.0     0.354320     0.470304     0.770671    Uiso  ? C
   H372       1.0     0.372414     0.465035     0.786509    Uiso  ? H
   C600       1.0     0.392955     0.467581     0.731108    Uiso  ? C
   C601       1.0     0.323371     0.397021     0.881836    Uiso  ? C
   C602       1.0     0.335125     0.366717     0.889063    Uiso  ? C
   C603       1.0     0.315739     0.342716     0.894381    Uiso  ? C
   H373       1.0     0.291288     0.345450     0.895969    Uiso  ? H
   C604       1.0     0.328464     0.316238     0.103173    Uiso  ? C
   H374       1.0     0.313052     0.298829     0.107797    Uiso  ? H
   C605       1.0     0.358971     0.309358     0.900000    Uiso  ? C
   H375       1.0     0.367050     0.287594     0.102413    Uiso  ? H
   C606       1.0     0.377773     0.332791     0.891348    Uiso  ? C
   C607       1.0     0.366105     0.361843     0.888003    Uiso  ? C
   H376       1.0     0.379972     0.383050     0.885158    Uiso  ? H
   C608       1.0     0.409989     0.327225     0.885118    Uiso  ? C
   C609       1.0     0.389218     0.480264     0.282136    Uiso  ? C
   C610       1.0     0.409311     0.496437     0.303043    Uiso  ? C
   C611       1.0     0.397573     0.512704     0.328901    Uiso  ? C
   H377       1.0     0.375089     0.512413     0.334486    Uiso  ? H
   C612       1.0     0.416869     0.526558     0.347913    Uiso  ? C
   H378       1.0     0.409006     0.536074     0.368594    Uiso  ? H
   C613       1.0     0.447752     0.527737     0.342229    Uiso  ? C
   H379       1.0     0.461540     0.538167     0.359935    Uiso  ? H
   C614       1.0     0.460307     0.514542     0.316978    Uiso  ? C
   C615       1.0     0.440575     0.497420     0.298613    Uiso  ? C
   H380       1.0     0.450497     0.485698     0.280136    Uiso  ? H
   C616       1.0     0.490303     0.521625     0.306131    Uiso  ? C
   C617       1.0     0.341373     0.512386     0.240995    Uiso  ? C
   C618       1.0     0.331349     0.543882     0.241674    Uiso  ? C
   C619       1.0     0.320908     0.555932     0.268914    Uiso  ? C
   H381       1.0     0.320241     0.543296     0.288851    Uiso  ? H
   C620       1.0     0.312272     0.586436     0.271380    Uiso  ? C
   H382       1.0     0.305318     0.596572     0.292300    Uiso  ? H
   C621       1.0     0.317712     0.605852     0.246298    Uiso  ? C
   H383       1.0     0.315366     0.630419     0.249503    Uiso  ? H
   C622       1.0     0.324283     0.593421     0.218445    Uiso  ? C
   C623       1.0     0.331627     0.563046     0.215903    Uiso  ? C
   H384       1.0     0.335761     0.553017     0.193801    Uiso  ? H
   C624       1.0     0.326996     0.613135     0.190132    Uiso  ? C
   C625       1.0     0.387190     0.408750     0.247895    Uiso  ? C
   C626       1.0     0.404278     0.380379     0.248434    Uiso  ? C
   C627       1.0     0.389150     0.352712     0.252555    Uiso  ? C
   H385       1.0     0.364337     0.353682     0.255185    Uiso  ? H
   C628       1.0     0.404633     0.324960     0.254149    Uiso  ? C
   H386       1.0     0.393594     0.304180     0.256743    Uiso  ? H
   C629       1.0     0.436689     0.326365     0.255773    Uiso  ? C
   H387       1.0     0.449114     0.305736     0.258658    Uiso  ? H
   C630       1.0     0.452004     0.353353     0.252029    Uiso  ? C
   C631       1.0     0.435849     0.379975     0.247832    Uiso  ? C
   H388       1.0     0.448638     0.402062     0.246562    Uiso  ? H
   C632       1.0     0.485447     0.353664     0.248066    Uiso  ? C
   C633       1.0     0.364093     0.698950     0.152663    Uiso  ? C
   C634       1.0     0.387035     0.722381     0.151116    Uiso  ? C
   C635       1.0     0.379603     0.752418     0.157212    Uiso  ? C
   H389       1.0     0.357254     0.761555     0.157475    Uiso  ? H
   C636       1.0     0.402357     0.774933     0.159835    Uiso  ? C
   H390       1.0     0.396375     0.798723     0.164192    Uiso  ? H
   C637       1.0     0.433274     0.767332     0.156485    Uiso  ? C
   H391       1.0     0.450962     0.783937     0.158705    Uiso  ? H
   C638       1.0     0.441150     0.736575     0.154365    Uiso  ? C
   C639       1.0     0.417214     0.714193     0.150552    Uiso  ? C
   H392       1.0     0.423421     0.691241     0.149642    Uiso  ? H
   C640       1.0     0.472730     0.726477     0.155775    Uiso  ? C
   C641       1.0     0.351223     0.647902     0.886577    Uiso  ? C
   C642       1.0     0.354674     0.654637     0.855103    Uiso  ? C
   C643       1.0     0.328149     0.662539     0.838642    Uiso  ? C
   H393       1.0     0.306974     0.666411     0.849286    Uiso  ? H
   C644       1.0     0.329281     0.667677     0.808329    Uiso  ? C
   H394       1.0     0.308794     0.671022     0.795748    Uiso  ? H
   C645       1.0     0.355854     0.662272     0.792667    Uiso  ? C
   H395       1.0     0.354106     0.664914     0.769690    Uiso  ? H
   C646       1.0     0.381797     0.652120     0.807457    Uiso  ? C
   C647       1.0     0.380268     0.648509     0.840449    Uiso  ? C
   H396       1.0     0.398109     0.639805     0.852676    Uiso  ? H
   C648       1.0     0.409895     0.642428     0.790650    Uiso  ? C
   C649       1.0     0.549521     0.373734     0.295417    Uiso  ? C
   C650       1.0     0.549976     0.396788     0.318627    Uiso  ? C
   C651       1.0     0.550335     0.391319     0.350058    Uiso  ? C
   H397       1.0     0.549379     0.368921     0.360344    Uiso  ? H
   C652       1.0     0.548298     0.416146     0.371053    Uiso  ? C
   H398       1.0     0.544362     0.411192     0.394172    Uiso  ? H
   C653       1.0     0.547926     0.446821     0.361907    Uiso  ? C
   H399       1.0     0.547008     0.464773     0.378988    Uiso  ? H
   C654       1.0     0.549464     0.452235     0.331402    Uiso  ? C
   C655       1.0     0.552128     0.427119     0.310742    Uiso  ? C
   H400       1.0     0.554616     0.432544     0.287654    Uiso  ? H
   C656       1.0     0.550646     0.483233     0.320034    Uiso  ? C
   C657       1.0     0.521078     0.305449     0.210326    Uiso  ? C
   C658       1.0     0.508758     0.283819     0.190161    Uiso  ? C
   C659       1.0     0.497117     0.255703     0.200786    Uiso  ? C
   H401       1.0     0.498728     0.249924     0.223555    Uiso  ? H
   C660       1.0     0.481028     0.236607     0.180847    Uiso  ? C
   H402       1.0     0.470387     0.217306     0.190239    Uiso  ? H
   C661       1.0     0.479116     0.244215     0.150670    Uiso  ? C
   H403       1.0     0.467434     0.228727     0.135988    Uiso  ? H
   C662       1.0     0.490387     0.271535     0.140641    Uiso  ? C
   C663       1.0     0.505061     0.290463     0.159342    Uiso  ? C
   H404       1.0     0.513612     0.311296     0.152110    Uiso  ? H
   C664       1.0     0.478240     0.282384     0.110331    Uiso  ? C
   C665       1.0     0.467154     0.322542     0.803448    Uiso  ? C
   C666       1.0     0.472611     0.331278     0.771738    Uiso  ? C
   C667       1.0     0.490082     0.313466     0.752872    Uiso  ? C
   H405       1.0     0.497185     0.290759     0.758757    Uiso  ? H
   C668       1.0     0.496955     0.323061     0.723063    Uiso  ? C
   H406       1.0     0.509690     0.308382     0.707980    Uiso  ? H
   C669       1.0     0.487486     0.350716     0.713594    Uiso  ? C
   H407       1.0     0.492956     0.357068     0.690440    Uiso  ? H
   C670       1.0     0.470966     0.369550     0.733564    Uiso  ? C
   C671       1.0     0.461225     0.358595     0.761872    Uiso  ? C
   H408       1.0     0.449105     0.376493     0.778143    Uiso  ? H
   C672       1.0     0.464281     0.402436     0.724826    Uiso  ? C
   O325       1.0     0.298041     0.456807     0.108449    Uiso  ? O
   O326       1.0     0.251748     0.439261     0.892949    Uiso  ? O
   O327       1.0     0.302997     0.491714     0.889112    Uiso  ? O
   O328       1.0     0.271221     0.489115     0.851282    Uiso  ? O
   O329       1.0     0.333041     0.454066     0.829236    Uiso  ? O
   O330       1.0     0.288699     0.473004     0.822332    Uiso  ? O
   O331       1.0     0.338337     0.418600     0.892976    Uiso  ? O
   O332       1.0     0.300696     0.401541     0.865091    Uiso  ? O
   O333       1.0     0.399600     0.469255     0.258027    Uiso  ? O
   O334       1.0     0.360180     0.479382     0.286902    Uiso  ? O
   O335       1.0     0.354518     0.502421     0.216819    Uiso  ? O
   O336       1.0     0.336111     0.494511     0.262267    Uiso  ? O
   O337       1.0     0.327253     0.446803     0.212174    Uiso  ? O
   O338       1.0     0.294117     0.441135     0.249672    Uiso  ? O
   O339       1.0     0.399393     0.435681     0.247114    Uiso  ? O
   O340       1.0     0.358766     0.408231     0.249056    Uiso  ? O
   O341       1.0     0.372297     0.671101     0.149516    Uiso  ? O
   O342       1.0     0.336882     0.705184     0.151418    Uiso  ? O
   O343       1.0     0.369150     0.628349     0.898390    Uiso  ? O
   O344       1.0     0.329401     0.661196     0.102865    Uiso  ? O
   O345       1.0     0.327188     0.597409     0.130229    Uiso  ? O
   O346       1.0     0.302151     0.635815     0.113416    Uiso  ? O
   O347       1.0     0.337552     0.601390     0.166580    Uiso  ? O
   O348       1.0     0.320920     0.641147     0.190159    Uiso  ? O
   O349       1.0     0.549742     0.381584     0.267250    Uiso  ? O
   O350       1.0     0.545253     0.346474     0.301634    Uiso  ? O
   O351       1.0     0.496774     0.370175     0.227353    Uiso  ? O
   O352       1.0     0.501901     0.333206     0.260291    Uiso  ? O
   O353       1.0     0.537129     0.327716     0.200667    Uiso  ? O
   O354       1.0     0.516623     0.302483     0.239134    Uiso  ? O
   O355       1.0     0.572313     0.337289     0.201165    Uiso  ? O
   O356       1.0     0.589961     0.330267     0.246433    Uiso  ? O
   O357       1.0     0.483886     0.309209     0.101512    Uiso  ? O
   O358       1.0     0.468233     0.261290     0.890915    Uiso  ? O
   O359       1.0     0.430966     0.346234     0.888422    Uiso  ? O
   O360       1.0     0.416222     0.301786     0.872142    Uiso  ? O
   O361       1.0     0.460814     0.342299     0.822046    Uiso  ? O
   O362       1.0     0.472351     0.295877     0.813213    Uiso  ? O
   O363       1.0     0.508386     0.313924     0.870608    Uiso  ? O
   O364       1.0     0.497165     0.281155     0.835153    Uiso  ? O
   O365       1.0     0.578990     0.511608     0.246609    Uiso  ? O
   O366       1.0     0.589194     0.538151     0.287117    Uiso  ? O
   O367       1.0     0.529647     0.568922     0.256094    Uiso  ? O
   O368       1.0     0.517045     0.575032     0.303424    Uiso  ? O
   O369       1.0     0.501209     0.505759     0.283973    Uiso  ? O
   O370       1.0     0.505952     0.543603     0.318040    Uiso  ? O
   O371       1.0     0.540925     0.487545     0.293586    Uiso  ? O
   O372       1.0     0.557402     0.505590     0.336660    Uiso  ? O
   O373       1.0     0.372669     0.477066     0.885050    Uiso  ? O
   O374       1.0     0.392315     0.447949     0.176104    Uiso  ? O
   O375       1.0     0.405641     0.607875     0.162410    Uiso  ? O
   O376       1.0     0.559844     0.402037     0.201622    Uiso  ? O
   O377       1.0     0.489818     0.381036     0.881371    Uiso  ? O
   O378       1.0     0.513648     0.508991     0.214480    Uiso  ? O
   Zn73       1.0     0.331679     0.459633     0.874679    Uiso  ? Zn
   Zn74       1.0     0.269926     0.438408     0.850777    Uiso  ? Zn
   Zn75       1.0     0.373939     0.457887     0.217654    Uiso  ? Zn
   Zn76       1.0     0.333742     0.444320     0.270457    Uiso  ? Zn
   Zn77       1.0     0.367400     0.625254     0.141226    Uiso  ? Zn
   Zn78       1.0     0.314060     0.664569     0.149416    Uiso  ? Zn
   Zn79       1.0     0.541561     0.367283     0.223945    Uiso  ? Zn
   Zn80       1.0     0.549306     0.317785     0.267705    Uiso  ? Zn
   Zn81       1.0     0.469153     0.339989     0.868436    Uiso  ? Zn
   Zn82       1.0     0.450211     0.275119     0.849417    Uiso  ? Zn
   Zn83       1.0     0.535753     0.521298     0.254786    Uiso  ? Zn
   Zn84       1.0     0.553998     0.547530     0.316502    Uiso  ? Zn
   C673       1.0     0.719500     0.558469     0.878910    Uiso  ? C
   C674       1.0     0.730926     0.547431     0.849976    Uiso  ? C
   C675       1.0     0.762013     0.544065     0.844234    Uiso  ? C
   H409       1.0     0.778503     0.544149     0.860386    Uiso  ? H
   C676       1.0     0.772174     0.544792     0.813285    Uiso  ? C
   H410       1.0     0.795239     0.544731     0.808990    Uiso  ? H
   C677       1.0     0.750868     0.542660     0.790041    Uiso  ? C
   H411       1.0     0.758582     0.540849     0.766888    Uiso  ? H
   C678       1.0     0.720418     0.545019     0.795040    Uiso  ? C
   C679       1.0     0.709569     0.547604     0.826074    Uiso  ? C
   H412       1.0     0.685955     0.548917     0.829180    Uiso  ? H
   C680       1.0     0.697474     0.541968     0.771519    Uiso  ? C
   C681       1.0     0.711262     0.514127     0.134114    Uiso  ? C
   C682       1.0     0.722328     0.482299     0.135318    Uiso  ? C
   C683       1.0     0.753441     0.475492     0.143114    Uiso  ? C
   H413       1.0     0.766278     0.494941     0.149026    Uiso  ? H
   C684       1.0     0.764640     0.446196     0.144790    Uiso  ? C
   H414       1.0     0.787870     0.442330     0.152762    Uiso  ? H
   C685       1.0     0.743860     0.422651     0.135890    Uiso  ? C
   H415       1.0     0.749643     0.399312     0.138942    Uiso  ? H
   C686       1.0     0.714012     0.428587     0.129411    Uiso  ? C
   C687       1.0     0.702897     0.457765     0.130423    Uiso  ? C
   H416       1.0     0.679818     0.462479     0.126293    Uiso  ? H
   C688       1.0     0.695990     0.405138     0.114857    Uiso  ? C
   C689       1.0     0.677576     0.548168     0.185711    Uiso  ? C
   C690       1.0     0.670107     0.538327     0.216765    Uiso  ? C
   C691       1.0     0.691023     0.531741     0.239069    Uiso  ? C
   H417       1.0     0.713845     0.533732     0.233471    Uiso  ? H
   C692       1.0     0.684033     0.525757     0.268303    Uiso  ? C
   H418       1.0     0.701151     0.521480     0.284694    Uiso  ? H
   C693       1.0     0.654319     0.522403     0.276748    Uiso  ? C
   H419       1.0     0.646185     0.511978     0.298099    Uiso  ? H
   C694       1.0     0.631768     0.526885     0.254055    Uiso  ? C
   C695       1.0     0.639279     0.534310     0.224112    Uiso  ? C
   H420       1.0     0.620810     0.538717     0.208725    Uiso  ? H
   C696       1.0     0.599028     0.524604     0.263454    Uiso  ? C
   C697       1.0     0.664996     0.620878     0.126150    Uiso  ? C
   C698       1.0     0.652061     0.650749     0.123386    Uiso  ? C
   C699       1.0     0.670259     0.676173     0.119087    Uiso  ? C
   H421       1.0     0.691098     0.671574     0.111601    Uiso  ? H
   C700       1.0     0.658909     0.704970     0.120311    Uiso  ? C
   H422       1.0     0.673407     0.723838     0.117964    Uiso  ? H
   C701       1.0     0.628916     0.709082     0.124688    Uiso  ? C
   H423       1.0     0.621412     0.731020     0.127563    Uiso  ? H
   C702       1.0     0.609262     0.683714     0.130560    Uiso  ? C
   C703       1.0     0.621572     0.655467     0.127688    Uiso  ? C
   H424       1.0     0.607263     0.635167     0.129654    Uiso  ? H
   C704       1.0     0.576281     0.687472     0.133898    Uiso  ? C
   C705       1.0     0.608962     0.495223     0.710413    Uiso  ? C
   C706       1.0     0.586916     0.478925     0.692331    Uiso  ? C
   C707       1.0     0.593279     0.470002     0.662546    Uiso  ? C
   H425       1.0     0.615855     0.475090     0.653718    Uiso  ? H
   C708       1.0     0.568704     0.460718     0.642616    Uiso  ? C
   H426       1.0     0.571188     0.457896     0.619835    Uiso  ? H
   C709       1.0     0.541236     0.456295     0.655804    Uiso  ? C
   H427       1.0     0.522991     0.446990     0.642095    Uiso  ? H
   C710       1.0     0.533851     0.464778     0.685099    Uiso  ? C
   C711       1.0     0.556409     0.477790     0.702907    Uiso  ? C
   H428       1.0     0.551961     0.484451     0.724953    Uiso  ? H
   C712       1.0     0.502551     0.462161     0.695669    Uiso  ? C
   C713       1.0     0.658415     0.466659     0.755344    Uiso  ? C
   C714       1.0     0.667150     0.435097     0.758651    Uiso  ? C
   C715       1.0     0.676306     0.415092     0.734807    Uiso  ? C
   H429       1.0     0.678888     0.423600     0.711870    Uiso  ? H
   C716       1.0     0.683235     0.385438     0.741233    Uiso  ? C
   H430       1.0     0.693622     0.370768     0.725165    Uiso  ? H
   C717       1.0     0.676168     0.372841     0.770274    Uiso  ? C
   H431       1.0     0.679964     0.350265     0.774395    Uiso  ? H
   C718       1.0     0.669796     0.392376     0.793418    Uiso  ? C
   C719       1.0     0.667117     0.423927     0.787987    Uiso  ? C
   H432       1.0     0.664024     0.437228     0.806403    Uiso  ? H
   C720       1.0     0.666873     0.383844     0.825140    Uiso  ? C
   C721       1.0     0.610761     0.568991     0.737115    Uiso  ? C
   C722       1.0     0.592787     0.597493     0.736032    Uiso  ? C
   C723       1.0     0.606794     0.624485     0.726182    Uiso  ? C
   H433       1.0     0.631490     0.624510     0.721486    Uiso  ? H
   C724       1.0     0.589870     0.650131     0.721217    Uiso  ? C
   H434       1.0     0.601338     0.669910     0.715694    Uiso  ? H
   C725       1.0     0.558074     0.650395     0.727416    Uiso  ? C
   H435       1.0     0.543904     0.670347     0.724411    Uiso  ? H
   C726       1.0     0.543647     0.624343     0.738281    Uiso  ? C
   C727       1.0     0.561051     0.597490     0.741881    Uiso  ? C
   H436       1.0     0.549866     0.576178     0.750553    Uiso  ? H
   C728       1.0     0.511851     0.624169     0.747531    Uiso  ? C
   C729       1.0     0.623081     0.333357     0.859880    Uiso  ? C
   C730       1.0     0.600257     0.310193     0.849214    Uiso  ? C
   C731       1.0     0.609789     0.288070     0.827924    Uiso  ? C
   H437       1.0     0.634646     0.284175     0.826638    Uiso  ? H
   C732       1.0     0.589182     0.267549     0.815583    Uiso  ? C
   H438       1.0     0.596863     0.252473     0.797934    Uiso  ? H
   C733       1.0     0.559073     0.267572     0.825391    Uiso  ? C
   H439       1.0     0.542623     0.253944     0.813526    Uiso  ? H
   C734       1.0     0.549146     0.290529     0.845481    Uiso  ? C
   C735       1.0     0.570303     0.312029     0.856723    Uiso  ? C
   H440       1.0     0.562217     0.330928     0.871262    Uiso  ? H
   C736       1.0     0.516756     0.295128     0.850732    Uiso  ? C
   C737       1.0     0.661036     0.335209     0.128172    Uiso  ? C
   C738       1.0     0.656631     0.323300     0.159523    Uiso  ? C
   C739       1.0     0.677619     0.305488     0.174729    Uiso  ? C
   H441       1.0     0.698552     0.300374     0.164195    Uiso  ? H
   C740       1.0     0.672954     0.298396     0.205437    Uiso  ? C
   H442       1.0     0.691199     0.284807     0.215873    Uiso  ? H
   C741       1.0     0.646711     0.306300     0.221396    Uiso  ? C
   H443       1.0     0.644180     0.298178     0.244293    Uiso  ? H
   C742       1.0     0.624209     0.322914     0.204802    Uiso  ? C
   C743       1.0     0.630669     0.331742     0.175366    Uiso  ? C
   H444       1.0     0.612302     0.339382     0.160654    Uiso  ? H
   C744       1.0     0.594086     0.329798     0.218586    Uiso  ? C
   C745       1.0     0.443185     0.610828     0.704310    Uiso  ? C
   C746       1.0     0.439934     0.587523     0.680631    Uiso  ? C
   C747       1.0     0.440331     0.593365     0.649166    Uiso  ? C
   H445       1.0     0.441655     0.616087     0.639568    Uiso  ? H
   C748       1.0     0.442686     0.568245     0.629791    Uiso  ? C
   H446       1.0     0.443523     0.569770     0.604855    Uiso  ? H
   C749       1.0     0.440613     0.538115     0.640721    Uiso  ? C
   H447       1.0     0.439000     0.519421     0.624727    Uiso  ? H
   C750       1.0     0.438434     0.533266     0.671683    Uiso  ? C
   C751       1.0     0.437767     0.558054     0.690968    Uiso  ? C
   H448       1.0     0.436025     0.554540     0.715888    Uiso  ? H
   C752       1.0     0.436758     0.502529     0.684035    Uiso  ? C
   C753       1.0     0.484561     0.669982     0.792552    Uiso  ? C
   C754       1.0     0.501137     0.691829     0.812306    Uiso  ? C
   C755       1.0     0.521150     0.713593     0.799853    Uiso  ? C
   H449       1.0     0.523349     0.716949     0.775080    Uiso  ? H
   C756       1.0     0.535509     0.734035     0.818128    Uiso  ? C
   H450       1.0     0.547660     0.751518     0.807517    Uiso  ? H
   C757       1.0     0.533930     0.730914     0.849257    Uiso  ? C
   H451       1.0     0.545763     0.747830     0.861098    Uiso  ? H
   C758       1.0     0.514979     0.708683     0.862779    Uiso  ? C
   C759       1.0     0.499355     0.689028     0.844116    Uiso  ? C
   H452       1.0     0.484928     0.673027     0.853881    Uiso  ? H
   C760       1.0     0.513775     0.706926     0.895507    Uiso  ? C
   C761       1.0     0.504540     0.671949     0.206362    Uiso  ? C
   C762       1.0     0.506252     0.660069     0.236732    Uiso  ? C
   C763       1.0     0.514041     0.680148     0.260073    Uiso  ? C
   H453       1.0     0.519795     0.703996     0.257903    Uiso  ? H
   C764       1.0     0.514305     0.670465     0.289747    Uiso  ? C
   H454       1.0     0.518847     0.685617     0.307162    Uiso  ? H
   C765       1.0     0.517932     0.638794     0.295631    Uiso  ? C
   H455       1.0     0.519883     0.630058     0.318837    Uiso  ? H
   C766       1.0     0.512090     0.618402     0.272138    Uiso  ? C
   C767       1.0     0.505695     0.629506     0.242529    Uiso  ? C
   H456       1.0     0.500016     0.613004     0.224166    Uiso  ? H
   C768       1.0     0.518317     0.585464     0.276879    Uiso  ? C
   O379       1.0     0.690387     0.560756     0.881579    Uiso  ? O
   O380       1.0     0.736247     0.559392     0.102418    Uiso  ? O
   O381       1.0     0.682603     0.518898     0.135377    Uiso  ? O
   O382       1.0     0.730110     0.535884     0.130732    Uiso  ? O
   O383       1.0     0.662626     0.538586     0.162859    Uiso  ? O
   O384       1.0     0.699944     0.566079     0.180760    Uiso  ? O
   O385       1.0     0.647338     0.599189     0.134421    Uiso  ? O
   O386       1.0     0.692498     0.616473     0.120381    Uiso  ? O
   O387       1.0     0.600519     0.509950     0.733472    Uiso  ? O
   O388       1.0     0.637194     0.494389     0.703572    Uiso  ? O
   O389       1.0     0.644020     0.481133     0.775637    Uiso  ? O
   O390       1.0     0.667933     0.480136     0.731451    Uiso  ? O
   O391       1.0     0.669420     0.548840     0.777142    Uiso  ? O
   O392       1.0     0.703700     0.527672     0.748415    Uiso  ? O
   O393       1.0     0.598218     0.545164     0.746297    Uiso  ? O
   O394       1.0     0.638665     0.568033     0.729150    Uiso  ? O
   O395       1.0     0.614519     0.353908     0.879321    Uiso  ? O
   O396       1.0     0.651168     0.332284     0.853409    Uiso  ? O
   O397       1.0     0.644663     0.357043     0.120391    Uiso  ? O
   O398       1.0     0.683097     0.326848     0.112426    Uiso  ? O
   O399       1.0     0.670850     0.398997     0.125401    Uiso  ? O
   O400       1.0     0.704933     0.393234     0.889764    Uiso  ? O
   O401       1.0     0.661297     0.403284     0.846451    Uiso  ? O
   O402       1.0     0.669945     0.356046     0.832511    Uiso  ? O
   O403       1.0     0.448510     0.601609     0.731550    Uiso  ? O
   O404       1.0     0.443293     0.637858     0.697365    Uiso  ? O
   O405       1.0     0.502506     0.605854     0.767256    Uiso  ? O
   O406       1.0     0.495475     0.645419     0.737255    Uiso  ? O
   O407       1.0     0.468253     0.649140     0.803139    Uiso  ? O
   O408       1.0     0.485488     0.672452     0.763674    Uiso  ? O
   O409       1.0     0.433589     0.636117     0.804159    Uiso  ? O
   O410       1.0     0.410165     0.642976     0.762458    Uiso  ? O
   O411       1.0     0.495500     0.688487     0.106955    Uiso  ? O
   O412       1.0     0.532863     0.722476     0.112461    Uiso  ? O
   O413       1.0     0.561369     0.669702     0.149922    Uiso  ? O
   O414       1.0     0.564274     0.713228     0.128052    Uiso  ? O
   O415       1.0     0.491039     0.656385     0.187889    Uiso  ? O
   O416       1.0     0.523280     0.693056     0.198680    Uiso  ? O
   O417       1.0     0.478572     0.699437     0.148628    Uiso  ? O
   O418       1.0     0.493743     0.745212     0.161322    Uiso  ? O
   O419       1.0     0.413916     0.485251     0.738551    Uiso  ? O
   O420       1.0     0.398590     0.445337     0.714534    Uiso  ? O
   O421       1.0     0.449326     0.419134     0.742792    Uiso  ? O
   O422       1.0     0.470578     0.411298     0.698876    Uiso  ? O
   O423       1.0     0.494235     0.475449     0.719235    Uiso  ? O
   O424       1.0     0.484261     0.443605     0.682327    Uiso  ? O
   O425       1.0     0.438682     0.500156     0.713102    Uiso  ? O
   O426       1.0     0.438940     0.479870     0.666200    Uiso  ? O
   O427       1.0     0.617810     0.545522     0.100896    Uiso  ? O
   O428       1.0     0.608738     0.527151     0.812674    Uiso  ? O
   O429       1.0     0.613626     0.427721     0.892031    Uiso  ? O
   O430       1.0     0.447184     0.565721     0.799025    Uiso  ? O
   O431       1.0     0.501865     0.632779     0.118059    Uiso  ? O
   O432       1.0     0.461486     0.473518     0.788289    Uiso  ? O
   Zn85       1.0     0.658203     0.557671     0.119038    Uiso  ? Zn
   Zn86       1.0     0.715762     0.581508     0.139743    Uiso  ? Zn
   Zn87       1.0     0.628375     0.522216     0.772886    Uiso  ? Zn
   Zn88       1.0     0.666363     0.529521     0.719593    Uiso  ? Zn
   Zn89       1.0     0.641230     0.390256     0.888066    Uiso  ? Zn
   Zn90       1.0     0.693256     0.350608     0.873028    Uiso  ? Zn
   Zn91       1.0     0.459382     0.607397     0.778051    Uiso  ? Zn
   Zn92       1.0     0.447245     0.660678     0.736576    Uiso  ? Zn
   Zn93       1.0     0.510894     0.666844     0.147088    Uiso  ? Zn
   Zn94       1.0     0.534593     0.726513     0.161309    Uiso  ? Zn
   Zn95       1.0     0.454284     0.465384     0.742607    Uiso  ? Zn
   Zn96       1.0     0.434783     0.436822     0.683200    Uiso  ? Zn
   H457       1.0     0.614467     0.539908     0.829151    Uiso  ? H
   H458       1.0     0.591048     0.515429     0.816673    Uiso  ? H
   H459       1.0     0.381919     0.434864     0.162438    Uiso  ? H
   H460       1.0     0.409971     0.459664     0.172243    Uiso  ? H
   H461       1.0     0.515430     0.490760     0.202235    Uiso  ? H
   H462       1.0     0.497814     0.521783     0.206868    Uiso  ? H
   H463       1.0     0.550870     0.421597     0.203631    Uiso  ? H
   H464       1.0     0.579766     0.400167     0.194856    Uiso  ? H
   H465       1.0     0.445032     0.473784     0.801752    Uiso  ? H
   H466       1.0     0.480584     0.482849     0.793930    Uiso  ? H
   H467       1.0     0.388505     0.477623     0.870915    Uiso  ? H
   H468       1.0     0.373700     0.487349     0.105700    Uiso  ? H
   H469       1.0     0.476059     0.396899     0.886512    Uiso  ? H
   H470       1.0     0.510488     0.386970     0.878247    Uiso  ? H
   H471       1.0     0.443079     0.568705     0.819943    Uiso  ? H
   H472       1.0     0.437857     0.550541     0.785472    Uiso  ? H
   H473       1.0     0.422936     0.617930     0.154045    Uiso  ? H
   H474       1.0     0.409071     0.600341     0.182284    Uiso  ? H
   H475       1.0     0.517706     0.624905     0.104364    Uiso  ? H
   H476       1.0     0.483976     0.620696     0.121629    Uiso  ? H
   H477       1.0     0.597954     0.428610     0.106182    Uiso  ? H
   H478       1.0     0.614481     0.444545     0.878980    Uiso  ? H
   H479       1.0     0.616660     0.525967     0.889374    Uiso  ? H
   H480       1.0     0.599973     0.552932     0.110775    Uiso  ? H
   H481       1.0     0.416073     0.374995     0.446889    Uiso  ? H
   N1         1.0     0.433199     0.350218     0.410092    Uiso  ? N
   H482       1.0     0.444876     0.327236     0.371069    Uiso  ? H
   C769       1.0     0.413977     0.369530     0.423585    Uiso  ? C
   C770       1.0     0.430975     0.343020     0.380795    Uiso  ? C
   C771       1.0     0.391104     0.384450     0.407755    Uiso  ? C
   C772       1.0     0.407853     0.354598     0.363704    Uiso  ? C
   H483       1.0     0.376316     0.398979     0.420808    Uiso  ? H
   H484       1.0     0.408226     0.354499     0.338816    Uiso  ? H
   C773       1.0     0.388020     0.376725     0.377438    Uiso  ? C
   C774       1.0     0.366380     0.393441     0.357973    Uiso  ? C
   H485       1.0     0.353785     0.355886     0.329909    Uiso  ? H
   H486       1.0     0.366802     0.435767     0.381826    Uiso  ? H
   C775       1.0     0.352006     0.379996     0.332776    Uiso  ? C
   C776       1.0     0.360827     0.424845     0.360892    Uiso  ? C
   C777       1.0     0.337566     0.395329     0.310193    Uiso  ? C
   C778       1.0     0.347041     0.441471     0.337244    Uiso  ? C
   H487       1.0     0.328719     0.384498     0.291078    Uiso  ? H
   N2         1.0     0.337324     0.426501     0.311966    Uiso  ? N
   H488       1.0     0.344429     0.465497     0.338656    Uiso  ? H
   H489       1.0     0.661550     0.859050     0.263510    Uiso  ? H
   N3         1.0     0.659682     0.820865     0.291883    Uiso  ? N
   H490       1.0     0.660388     0.777155     0.311978    Uiso  ? H
   C779       1.0     0.654882     0.835373     0.265439    Uiso  ? C
   C780       1.0     0.653811     0.791139     0.293279    Uiso  ? C
   C781       1.0     0.636761     0.824364     0.242249    Uiso  ? C
   C782       1.0     0.636114     0.778208     0.270843    Uiso  ? C
   H491       1.0     0.632852     0.838558     0.222312    Uiso  ? H
   H492       1.0     0.628986     0.756286     0.274150    Uiso  ? H
   C783       1.0     0.626307     0.794363     0.245910    Uiso  ? C
   C784       1.0     0.605096     0.780270     0.224358    Uiso  ? C
   H493       1.0     0.625188     0.735283     0.225853    Uiso  ? H
   H494       1.0     0.573655     0.818003     0.218595    Uiso  ? H
   C785       1.0     0.608867     0.750039     0.217758    Uiso  ? C
   C786       1.0     0.577591     0.794575     0.214188    Uiso  ? C
   C787       1.0     0.588641     0.735168     0.199106    Uiso  ? C
   C788       1.0     0.557979     0.779995     0.195462    Uiso  ? C
   H495       1.0     0.592591     0.711525     0.196021    Uiso  ? H
   N4         1.0     0.564755     0.750740     0.186012    Uiso  ? N
   H496       1.0     0.537284     0.790783     0.191123    Uiso  ? H
   H497       1.0     0.616542     0.631191     0.543270    Uiso  ? H
   N5         1.0     0.601013     0.647462     0.583669    Uiso  ? N
   H498       1.0     0.589907     0.665635     0.627388    Uiso  ? H
   C789       1.0     0.618690     0.628513     0.566606    Uiso  ? C
   C790       1.0     0.603934     0.649192     0.614076    Uiso  ? C
   C791       1.0     0.635225     0.605994     0.579859    Uiso  ? C
   C792       1.0     0.620298     0.627636     0.628877    Uiso  ? C
   H499       1.0     0.647193     0.589379     0.567359    Uiso  ? H
   H500       1.0     0.622229     0.628865     0.653284    Uiso  ? H
   C793       1.0     0.637720     0.606553     0.612046    Uiso  ? C
   C794       1.0     0.655877     0.584853     0.629033    Uiso  ? C
   H501       1.0     0.681363     0.616778     0.652752    Uiso  ? H
   H502       1.0     0.634968     0.542985     0.610206    Uiso  ? H
   C795       1.0     0.674718     0.594987     0.653075    Uiso  ? C
   C796       1.0     0.649361     0.553548     0.627445    Uiso  ? C
   C797       1.0     0.680156     0.575659     0.677703    Uiso  ? C
   C798       1.0     0.657005     0.535126     0.652818    Uiso  ? C
   H503       1.0     0.692647     0.582306     0.697428    Uiso  ? H
   N6         1.0     0.671488     0.546612     0.677288    Uiso  ? N
   H504       1.0     0.647775     0.512548     0.653686    Uiso  ? H
   H505       1.0     0.326550     0.206443     0.712737    Uiso  ? H
   N7         1.0     0.341946     0.162968     0.724156    Uiso  ? N
   H506       1.0     0.358100     0.123158     0.741046    Uiso  ? H
   C799       1.0     0.340033     0.193220     0.728774    Uiso  ? C
   C800       1.0     0.354112     0.146091     0.746040    Uiso  ? C
   C801       1.0     0.353084     0.208677     0.752078    Uiso  ? C
   C802       1.0     0.366191     0.158860     0.772753    Uiso  ? C
   H507       1.0     0.349495     0.232049     0.754043    Uiso  ? H
   H508       1.0     0.376903     0.145452     0.789561    Uiso  ? H
   C803       1.0     0.366238     0.190837     0.774749    Uiso  ? C
   C804       1.0     0.383374     0.205725     0.799587    Uiso  ? C
   H509       1.0     0.351482     0.237128     0.807610    Uiso  ? H
   H510       1.0     0.424450     0.177745     0.793429    Uiso  ? H
   C805       1.0     0.373763     0.232087     0.811598    Uiso  ? C
   C806       1.0     0.414104     0.197646     0.803891    Uiso  ? C
   C807       1.0     0.393817     0.251113     0.828196    Uiso  ? C
   C808       1.0     0.433344     0.216850     0.820137    Uiso  ? C
   H511       1.0     0.383859     0.269435     0.839574    Uiso  ? H
   N8         1.0     0.424019     0.244211     0.830608    Uiso  ? N
   H512       1.0     0.457228     0.213732     0.818292    Uiso  ? H
   H513       1.0     0.613495     0.434700     0.561208    Uiso  ? H
   N9         1.0     0.652665     0.437052     0.589211    Uiso  ? N
   H514       1.0     0.687620     0.436570     0.622859    Uiso  ? H
   C809       1.0     0.623541     0.429065     0.583409    Uiso  ? C
   C810       1.0     0.664836     0.429884     0.617376    Uiso  ? C
   C811       1.0     0.608111     0.409516     0.604366    Uiso  ? C
   C812       1.0     0.648802     0.410423     0.637902    Uiso  ? C
   H515       1.0     0.586047     0.401437     0.598790    Uiso  ? H
   H516       1.0     0.660479     0.402655     0.657845    Uiso  ? H
   C813       1.0     0.621169     0.398196     0.630578    Uiso  ? C
   C814       1.0     0.606374     0.374061     0.648485    Uiso  ? C
   H517       1.0     0.647629     0.352455     0.662388    Uiso  ? H
   H518       1.0     0.558886     0.389214     0.640229    Uiso  ? H
   C815       1.0     0.622987     0.350940     0.661075    Uiso  ? C
   C816       1.0     0.575198     0.372261     0.648803    Uiso  ? C
   C817       1.0     0.608905     0.324175     0.670111    Uiso  ? C
   C818       1.0     0.561493     0.344457     0.658420    Uiso  ? C
   H519       1.0     0.621324     0.305438     0.675163    Uiso  ? H
   N10        1.0     0.578760     0.319950     0.666694    Uiso  ? N
   H520       1.0     0.538780     0.340571     0.654428    Uiso  ? H
   H521       1.0     0.768012     0.693575     0.639142    Uiso  ? H
   N11        1.0     0.810214     0.705209     0.655709    Uiso  ? N
   H522       1.0     0.853065     0.720662     0.672261    Uiso  ? H
   C819       1.0     0.782428     0.711744     0.644501    Uiso  ? C
   C820       1.0     0.829734     0.726662     0.664578    Uiso  ? C
   C821       1.0     0.775079     0.740161     0.634457    Uiso  ? C
   C822       1.0     0.822969     0.757139     0.656348    Uiso  ? C
   H523       1.0     0.754048     0.743398     0.620347    Uiso  ? H
   H524       1.0     0.840066     0.774320     0.659503    Uiso  ? H
   C823       1.0     0.795611     0.763903     0.640389    Uiso  ? C
   C824       1.0     0.791930     0.792693     0.625489    Uiso  ? C
   H525       1.0     0.760400     0.808478     0.659280    Uiso  ? H
   H526       1.0     0.819649     0.780595     0.586845    Uiso  ? H
   C825       1.0     0.769512     0.810873     0.636147    Uiso  ? C
   C826       1.0     0.805865     0.797922     0.596837    Uiso  ? C
   C827       1.0     0.756933     0.832073     0.617419    Uiso  ? C
   C828       1.0     0.792875     0.821644     0.580112    Uiso  ? C
   H527       1.0     0.736590     0.844003     0.624623    Uiso  ? H
   N12        1.0     0.768220     0.836106     0.589369    Uiso  ? N
   H528       1.0     0.800526     0.826026     0.557531    Uiso  ? H
   H529       1.0     0.141134     0.259156     0.333022    Uiso  ? H
   N13        1.0     0.178304     0.288404     0.325619    Uiso  ? N
   H530       1.0     0.219324     0.312703     0.319452    Uiso  ? H
   C829       1.0     0.164960     0.263232     0.335564    Uiso  ? C
   C830       1.0     0.208774     0.291280     0.325125    Uiso  ? C
   C831       1.0     0.181961     0.241414     0.349221    Uiso  ? C
   C832       1.0     0.226556     0.272814     0.342351    Uiso  ? C
   H531       1.0     0.170623     0.221107     0.357524    Uiso  ? H
   H532       1.0     0.251096     0.279603     0.344358    Uiso  ? H
   C833       1.0     0.212711     0.248061     0.357213    Uiso  ? C
   C834       1.0     0.228428     0.229248     0.379825    Uiso  ? C
   H533       1.0     0.188716     0.214006     0.405207    Uiso  ? H
   H534       1.0     0.272306     0.237647     0.361221    Uiso  ? H
   C835       1.0     0.212498     0.215314     0.404022    Uiso  ? C
   C836       1.0     0.260660     0.229884     0.381620    Uiso  ? C
   C837       1.0     0.229033     0.203180     0.427889    Uiso  ? C
   C838       1.0     0.275012     0.220025     0.407241    Uiso  ? C
   H535       1.0     0.218092     0.191819     0.446944    Uiso  ? H
   N14        1.0     0.259277     0.205102     0.430036    Uiso  ? N
   H536       1.0     0.299494     0.222833     0.408198    Uiso  ? H
   H537       1.0     0.405280     0.680227     0.309381    Uiso  ? H
   N15        1.0     0.444743     0.660948     0.329167    Uiso  ? N
   H538       1.0     0.480255     0.636771     0.348233    Uiso  ? H
   C839       1.0     0.415692     0.660734     0.320598    Uiso  ? C
   C840       1.0     0.456763     0.635442     0.342558    Uiso  ? C
   C841       1.0     0.397597     0.635420     0.327117    Uiso  ? C
   C842       1.0     0.438987     0.612720     0.352839    Uiso  ? C
   H539       1.0     0.375058     0.635887     0.320165    Uiso  ? H
   H540       1.0     0.451009     0.598596     0.369014    Uiso  ? H
   C843       1.0     0.408370     0.613992     0.347543    Uiso  ? C
   C844       1.0     0.386568     0.597847     0.367142    Uiso  ? C
   H541       1.0     0.357263     0.583713     0.332596    Uiso  ? H
   H542       1.0     0.408711     0.613444     0.407501    Uiso  ? H
   C845       1.0     0.359156     0.585660     0.356200    Uiso  ? C
   C846       1.0     0.390632     0.599441     0.398986    Uiso  ? C
   C847       1.0     0.338919     0.571822     0.376268    Uiso  ? C
   C848       1.0     0.369626     0.586815     0.417781    Uiso  ? C
   H543       1.0     0.316738     0.563041     0.368500    Uiso  ? H
   N16        1.0     0.345661     0.573006     0.405971    Uiso  ? N
   H544       1.0     0.373623     0.587983     0.441336    Uiso  ? H
   H545       1.0     0.693933     0.679920     0.373746    Uiso  ? H
   N17        1.0     0.676094     0.668635     0.416782    Uiso  ? N
   H546       1.0     0.648781     0.667704     0.457635    Uiso  ? H
   C849       1.0     0.674564     0.670927     0.386438    Uiso  ? C
   C850       1.0     0.649584     0.665791     0.433083    Uiso  ? C
   C851       1.0     0.649530     0.660648     0.371159    Uiso  ? C
   C852       1.0     0.623054     0.657164     0.417750    Uiso  ? C
   H547       1.0     0.650989     0.656606     0.347094    Uiso  ? H
   H548       1.0     0.602614     0.651895     0.431132    Uiso  ? H
   C853       1.0     0.624146     0.650616     0.385992    Uiso  ? C
   C854       1.0     0.602407     0.628103     0.372648    Uiso  ? C
   H549       1.0     0.607714     0.643484     0.327670    Uiso  ? H
   H550       1.0     0.595480     0.599006     0.415551    Uiso  ? H
   C855       1.0     0.597641     0.627697     0.341020    Uiso  ? C
   C856       1.0     0.591948     0.602692     0.389145    Uiso  ? C
   C857       1.0     0.584098     0.602667     0.326799    Uiso  ? C
   C858       1.0     0.577505     0.579074     0.374193    Uiso  ? C
   H551       1.0     0.581926     0.601429     0.302915    Uiso  ? H
   N18        1.0     0.573242     0.579615     0.344471    Uiso  ? N
   H552       1.0     0.566823     0.560220     0.387151    Uiso  ? H
   H553       1.0     0.152157     0.630695     0.265060    Uiso  ? H
   N19        1.0     0.165663     0.589952     0.241694    Uiso  ? N
   H554       1.0     0.184276     0.553311     0.217575    Uiso  ? H
   C859       1.0     0.164607     0.620822     0.246589    Uiso  ? C
   C860       1.0     0.181418     0.577660     0.219014    Uiso  ? C
   C861       1.0     0.184398     0.640127     0.230484    Uiso  ? C
   C862       1.0     0.198535     0.595817     0.199812    Uiso  ? C
   H555       1.0     0.183262     0.664636     0.234612    Uiso  ? H
   H556       1.0     0.214474     0.585258     0.184837    Uiso  ? H
   C863       1.0     0.201420     0.626474     0.207612    Uiso  ? C
   C864       1.0     0.222119     0.646542     0.190099    Uiso  ? C
   H557       1.0     0.208855     0.632066     0.145685    Uiso  ? H
   H558       1.0     0.243042     0.663736     0.230529    Uiso  ? H
   C865       1.0     0.224497     0.645581     0.158093    Uiso  ? C
   C866       1.0     0.243031     0.663766     0.205878    Uiso  ? C
   C867       1.0     0.250266     0.658519     0.144702    Uiso  ? C
   C868       1.0     0.267740     0.676778     0.191249    Uiso  ? C
   H559       1.0     0.253490     0.653564     0.121668    Uiso  ? H
   N20        1.0     0.272682     0.670124     0.161760    Uiso  ? N
   H560       1.0     0.287411     0.682072     0.204597    Uiso  ? H
   H561       1.0     0.347389     0.345781     0.525367    Uiso  ? H
   N21        1.0     0.320471     0.333890     0.562119    Uiso  ? N
   H562       1.0     0.296354     0.327209     0.601959    Uiso  ? H
   C869       1.0     0.347330     0.341022     0.548381    Uiso  ? C
   C870       1.0     0.319169     0.330073     0.591561    Uiso  ? C
   C871       1.0     0.373271     0.347344     0.565954    Uiso  ? C
   C872       1.0     0.344138     0.337657     0.610118    Uiso  ? C
   H563       1.0     0.393023     0.355164     0.553923    Uiso  ? H
   H564       1.0     0.340076     0.336874     0.634408    Uiso  ? H
   C873       1.0     0.371135     0.348337     0.597929    Uiso  ? C
   C874       1.0     0.391940     0.367241     0.615702    Uiso  ? C
   H565       1.0     0.396767     0.402587     0.583667    Uiso  ? H
   H566       1.0     0.389056     0.337902     0.655948    Uiso  ? H
   C875       1.0     0.401565     0.395248     0.604702    Uiso  ? C
   C876       1.0     0.398795     0.357634     0.645356    Uiso  ? C
   C877       1.0     0.414607     0.415056     0.625649    Uiso  ? C
   C878       1.0     0.412624     0.378480     0.664215    Uiso  ? C
   H567       1.0     0.417471     0.437673     0.617371    Uiso  ? H
   N22        1.0     0.418642     0.407349     0.654539    Uiso  ? N
   H568       1.0     0.416325     0.373917     0.687632    Uiso  ? H
   H569       1.0     0.821165     0.443323     0.776682    Uiso  ? H
   N23        1.0     0.836715     0.401124     0.756925    Uiso  ? N
   H570       1.0     0.843247     0.355622     0.739133    Uiso  ? H
   C879       1.0     0.822958     0.418667     0.778935    Uiso  ? C
   C880       1.0     0.835330     0.370238     0.758511    Uiso  ? C
   C881       1.0     0.805033     0.404035     0.801159    Uiso  ? C
   C882       1.0     0.823276     0.354585     0.783336    Uiso  ? C
   H571       1.0     0.792266     0.419010     0.814056    Uiso  ? H
   H572       1.0     0.824677     0.330861     0.785492    Uiso  ? H
   C883       1.0     0.805437     0.371932     0.802506    Uiso  ? C
   C884       1.0     0.784221     0.355739     0.822724    Uiso  ? C
   H573       1.0     0.801848     0.375618     0.864085    Uiso  ? H
   H574       1.0     0.760334     0.334233     0.785269    Uiso  ? H
   C885       1.0     0.784570     0.362373     0.854045    Uiso  ? C
   C886       1.0     0.761187     0.338963     0.809712    Uiso  ? C
   C887       1.0     0.758882     0.358137     0.869543    Uiso  ? C
   C888       1.0     0.736563     0.331535     0.828413    Uiso  ? C
   H575       1.0     0.756834     0.369670     0.890759    Uiso  ? H
   N24        1.0     0.734977     0.344035     0.855834    Uiso  ? N
   H576       1.0     0.715300     0.324191     0.818786    Uiso  ? H
   H577       1.0     0.859654     0.660709     0.249986    Uiso  ? H
   N25        1.0     0.823946     0.689590     0.265633    Uiso  ? N
   H578       1.0     0.782865     0.712673     0.278232    Uiso  ? H
   C889       1.0     0.835731     0.663355     0.255388    Uiso  ? C
   C890       1.0     0.794463     0.691200     0.271432    Uiso  ? C
   C891       1.0     0.817220     0.638289     0.247579    Uiso  ? C
   C892       1.0     0.774851     0.669046     0.260280    Uiso  ? C
   H579       1.0     0.827489     0.619087     0.235252    Uiso  ? H
   H580       1.0     0.751017     0.674576     0.259459    Uiso  ? H
   C893       1.0     0.785901     0.642897     0.245840    Uiso  ? C
   C894       1.0     0.766630     0.627088     0.223070    Uiso  ? C
   H581       1.0     0.786862     0.582669     0.229744    Uiso  ? H
   H582       1.0     0.744902     0.665926     0.208669    Uiso  ? H
   C895       1.0     0.773381     0.596884     0.215425    Uiso  ? C
   C896       1.0     0.745227     0.642259     0.206189    Uiso  ? C
   C897       1.0     0.759139     0.584050     0.189675    Uiso  ? C
   C898       1.0     0.729320     0.627320     0.183045    Uiso  ? C
   H583       1.0     0.762865     0.561250     0.182707    Uiso  ? H
   N26        1.0     0.738331     0.599254     0.174485    Uiso  ? N
   H584       1.0     0.712047     0.639593     0.172052    Uiso  ? H
   H585       1.0     0.664807     0.160033     0.229550    Uiso  ? H
   N27        1.0     0.634986     0.169120     0.195514    Uiso  ? N
   H586       1.0     0.598056     0.179941     0.166924    Uiso  ? H
   C899       1.0     0.644189     0.169799     0.224811    Uiso  ? C
   C900       1.0     0.607353     0.182220     0.188581    Uiso  ? C
   C901       1.0     0.628244     0.185982     0.246675    Uiso  ? C
   C902       1.0     0.589929     0.195763     0.210512    Uiso  ? C
   H587       1.0     0.637136     0.185496     0.269341    Uiso  ? H
   H588       1.0     0.568858     0.206079     0.204897    Uiso  ? H
   C903       1.0     0.601381     0.200220     0.239529    Uiso  ? C
   C904       1.0     0.586913     0.220794     0.260352    Uiso  ? C
   H589       1.0     0.627996     0.239763     0.274332    Uiso  ? H
   H590       1.0     0.541601     0.205891     0.252383    Uiso  ? H
   C905       1.0     0.604263     0.242019     0.273281    Uiso  ? C
   C906       1.0     0.555272     0.223931     0.261171    Uiso  ? C
   C907       1.0     0.590991     0.268636     0.283206    Uiso  ? C
   C908       1.0     0.541980     0.249683     0.271847    Uiso  ? C
   H591       1.0     0.605549     0.287060     0.292167    Uiso  ? H
   N28        1.0     0.561441     0.273711     0.278602    Uiso  ? N
   H592       1.0     0.517483     0.252094     0.268429    Uiso  ? H
   H593       1.0     0.404287     0.806576     0.860834    Uiso  ? H
   N29        1.0     0.361096     0.803522     0.837034    Uiso  ? N
   H594       1.0     0.321993     0.802918     0.810220    Uiso  ? H
   C909       1.0     0.390684     0.798280     0.840367    Uiso  ? C
   C910       1.0     0.345532     0.795802     0.811986    Uiso  ? C
   C911       1.0     0.406665     0.781093     0.818942    Uiso  ? C
   C912       1.0     0.359296     0.779658     0.789990    Uiso  ? C
   H595       1.0     0.430779     0.776645     0.821358    Uiso  ? H
   H596       1.0     0.345776     0.770291     0.771834    Uiso  ? H
   C913       1.0     0.391113     0.771234     0.793759    Uiso  ? C
   C914       1.0     0.404179     0.750359     0.770842    Uiso  ? C
   H597       1.0     0.361087     0.728836     0.757514    Uiso  ? H
   H598       1.0     0.450202     0.763777     0.775096    Uiso  ? H
   C915       1.0     0.385902     0.729511     0.755468    Uiso  ? C
   C916       1.0     0.435705     0.749139     0.765900    Uiso  ? C
   C917       1.0     0.398910     0.706080     0.739772    Uiso  ? C
   C918       1.0     0.449484     0.724968     0.750321    Uiso  ? C
   H599       1.0     0.385483     0.687153     0.731054    Uiso  ? H
   N30        1.0     0.430454     0.703396     0.738757    Uiso  ? N
   H600       1.0     0.473621     0.722843     0.747427    Uiso  ? H
   H601       1.0     0.120836     0.358638     0.736059    Uiso  ? H
   N31        1.0     0.159241     0.332649     0.723297    Uiso  ? N
   H602       1.0     0.199067     0.311991     0.710984    Uiso  ? H
   C919       1.0     0.145024     0.357370     0.734552    Uiso  ? C
   C920       1.0     0.188561     0.331840     0.721166    Uiso  ? C
   C921       1.0     0.161041     0.381640     0.745717    Uiso  ? C
   C922       1.0     0.206604     0.353367     0.737038    Uiso  ? C
   H603       1.0     0.148134     0.399694     0.756688    Uiso  ? H
   H604       1.0     0.230600     0.347987     0.741384    Uiso  ? H
   C923       1.0     0.191842     0.378038     0.750840    Uiso  ? C
   C924       1.0     0.209652     0.392115     0.774577    Uiso  ? C
   H605       1.0     0.171846     0.394851     0.805178    Uiso  ? H
   H606       1.0     0.249285     0.398133     0.747005    Uiso  ? H
   C925       1.0     0.196157     0.399407     0.802760    Uiso  ? C
   C926       1.0     0.239582     0.401272     0.769040    Uiso  ? C
   C927       1.0     0.213006     0.414325     0.824727    Uiso  ? C
   C928       1.0     0.256244     0.412963     0.793134    Uiso  ? C
   H607       1.0     0.200700     0.420855     0.844734    Uiso  ? H
   N32        1.0     0.243010     0.419542     0.819398    Uiso  ? N
   H608       1.0     0.279528     0.418058     0.788440    Uiso  ? H
   H609       1.0     0.651084     0.738860     0.874287    Uiso  ? H
   N33        1.0     0.672498     0.724591     0.834911    Uiso  ? N
   H610       1.0     0.689372     0.707264     0.793540    Uiso  ? H
   C929       1.0     0.648587     0.736045     0.850772    Uiso  ? C
   C930       1.0     0.670078     0.716785     0.806530    Uiso  ? C
   C931       1.0     0.623298     0.747984     0.835915    Uiso  ? C
   C932       1.0     0.643187     0.726971     0.791068    Uiso  ? C
   H611       1.0     0.607105     0.760473     0.847901    Uiso  ? H
   H612       1.0     0.644074     0.721350     0.767195    Uiso  ? H
   C933       1.0     0.624699     0.747893     0.804763    Uiso  ? C
   C934       1.0     0.607935     0.772276     0.787899    Uiso  ? C
   H613       1.0     0.611181     0.750280     0.744168    Uiso  ? H
   H614       1.0     0.601166     0.803876     0.826960    Uiso  ? H
   C935       1.0     0.605673     0.771035     0.756542    Uiso  ? C
   C936       1.0     0.598523     0.800536     0.802339    Uiso  ? C
   C937       1.0     0.590802     0.792892     0.739857    Uiso  ? C
   C938       1.0     0.583408     0.822038     0.783466    Uiso  ? C
   H615       1.0     0.586512     0.788406     0.716670    Uiso  ? H
   N34        1.0     0.581259     0.818096     0.753307    Uiso  ? N
   H616       1.0     0.571991     0.841332     0.793919    Uiso  ? H
   H617       1.0     0.164043     0.839844     0.621874    Uiso  ? H
   N35        1.0     0.200536     0.839512     0.653700    Uiso  ? N
   H618       1.0     0.240279     0.836282     0.682713    Uiso  ? H
   C939       1.0     0.186860     0.830463     0.626926    Uiso  ? C
   C940       1.0     0.227945     0.827914     0.662291    Uiso  ? C
   C941       1.0     0.201024     0.809283     0.607792    Uiso  ? C
   C942       1.0     0.242974     0.808090     0.642031    Uiso  ? C
   H619       1.0     0.189752     0.803042     0.586635    Uiso  ? H
   H620       1.0     0.264921     0.801129     0.646601    Uiso  ? H
   C943       1.0     0.228421     0.795862     0.615747    Uiso  ? C
   C944       1.0     0.244993     0.776043     0.594311    Uiso  ? C
   H621       1.0     0.228782     0.796025     0.554130    Uiso  ? H
   H622       1.0     0.264499     0.752513     0.631207    Uiso  ? H
   C945       1.0     0.244237     0.781283     0.563441    Uiso  ? C
   C946       1.0     0.265776     0.755432     0.606425    Uiso  ? C
   C947       1.0     0.266419     0.766764     0.545624    Uiso  ? C
   C948       1.0     0.286186     0.741337     0.588261    Uiso  ? C
   H623       1.0     0.266527     0.772930     0.521181    Uiso  ? H
   N36        1.0     0.287912     0.749508     0.559234    Uiso  ? N
   H624       1.0     0.304707     0.730347     0.600495    Uiso  ? H
   H625       1.0     0.337342     0.253612     0.135752    Uiso  ? H
   N37        1.0     0.310201     0.259973     0.173105    Uiso  ? N
   H626       1.0     0.290889     0.268569     0.214053    Uiso  ? H
   C949       1.0     0.335033     0.250249     0.159205    Uiso  ? C
   C950       1.0     0.308918     0.258029     0.203656    Uiso  ? C
   C951       1.0     0.358366     0.235791     0.174360    Uiso  ? C
   C952       1.0     0.328778     0.238919     0.220030    Uiso  ? C
   H627       1.0     0.376740     0.226825     0.160714    Uiso  ? H
   H628       1.0     0.323029     0.236032     0.243418    Uiso  ? H
   C953       1.0     0.354162     0.227770     0.205239    Uiso  ? C
   C954       1.0     0.372800     0.203452     0.219049    Uiso  ? C
   H629       1.0     0.416156     0.225476     0.206379    Uiso  ? H
   H630       1.0     0.334550     0.183511     0.238455    Uiso  ? H
   C955       1.0     0.404660     0.205857     0.218976    Uiso  ? C
   C956       1.0     0.358098     0.181535     0.236035    Uiso  ? C
   C957       1.0     0.421321     0.182945     0.234233    Uiso  ? C
   C958       1.0     0.375712     0.158542     0.250137    Uiso  ? C
   H631       1.0     0.445316     0.184374     0.236982    Uiso  ? H
   N38        1.0     0.407152     0.160180     0.249038    Uiso  ? N
   H632       1.0     0.363834     0.140390     0.263215    Uiso  ? H
   H633       1.0     0.832149     0.159905     0.384031    Uiso  ? H
   N39        1.0     0.826695     0.183423     0.341832    Uiso  ? N
   H634       1.0     0.818690     0.207498     0.302689    Uiso  ? H
   C959       1.0     0.823722     0.179665     0.371472    Uiso  ? C
   C960       1.0     0.815449     0.207315     0.327268    Uiso  ? C
   C961       1.0     0.804846     0.200043     0.387496    Uiso  ? C
   C962       1.0     0.798941     0.228835     0.342182    Uiso  ? C
   H635       1.0     0.796764     0.192013     0.410566    Uiso  ? H
   H636       1.0     0.794757     0.249381     0.331797    Uiso  ? H
   C963       1.0     0.793821     0.225379     0.373304    Uiso  ? C
   C964       1.0     0.776022     0.247937     0.390852    Uiso  ? C
   H637       1.0     0.798171     0.240995     0.430981    Uiso  ? H
   H638       1.0     0.745495     0.262361     0.353317    Uiso  ? H
   C965       1.0     0.780628     0.251844     0.421289    Uiso  ? C
   C966       1.0     0.750658     0.262731     0.376965    Uiso  ? C
   C967       1.0     0.758038     0.265474     0.439033    Uiso  ? C
   C968       1.0     0.728238     0.272694     0.395848    Uiso  ? C
   H639       1.0     0.761708     0.264698     0.462638    Uiso  ? H
   N40        1.0     0.731617     0.272608     0.425590    Uiso  ? N
   H640       1.0     0.707410     0.285192     0.389161    Uiso  ? H
   H641       1.0     0.764385     0.126470     0.663380    Uiso  ? H
   N41        1.0     0.746621     0.167348     0.680396    Uiso  ? N
   H642       1.0     0.729715     0.208512     0.691938    Uiso  ? H
   C969       1.0     0.759037     0.149561     0.658319    Uiso  ? C
   C970       1.0     0.740610     0.196982     0.675069    Uiso  ? C
   C971       1.0     0.765976     0.159825     0.629549    Uiso  ? C
   C972       1.0     0.750036     0.209578     0.647503    Uiso  ? C
   H643       1.0     0.779829     0.145333     0.614392    Uiso  ? H
   H644       1.0     0.746641     0.233420     0.643437    Uiso  ? H
   C973       1.0     0.763923     0.191404     0.624438    Uiso  ? C
   C974       1.0     0.778611     0.204368     0.597712    Uiso  ? C
   H645       1.0     0.741516     0.235358     0.585121    Uiso  ? H
   H646       1.0     0.819588     0.181009     0.605327    Uiso  ? H
   C975       1.0     0.765344     0.228381     0.582570    Uiso  ? C
   C976       1.0     0.808536     0.197414     0.592883    Uiso  ? C
   C977       1.0     0.782820     0.245325     0.562399    Uiso  ? C
   C978       1.0     0.824992     0.215123     0.571789    Uiso  ? C
   H647       1.0     0.774486     0.266343     0.551342    Uiso  ? H
   N42        1.0     0.812248     0.239560     0.558298    Uiso  ? N
   H648       1.0     0.848613     0.208443     0.568640    Uiso  ? H
   H649       1.0     0.197195     0.697953     0.796156    Uiso  ? H
   N43        1.0     0.176114     0.655948     0.808505    Uiso  ? N
   H650       1.0     0.161140     0.610692     0.817922    Uiso  ? H
   C979       1.0     0.198233     0.673604     0.795065    Uiso  ? C
   C980       1.0     0.178038     0.624589     0.807842    Uiso  ? C
   C981       1.0     0.223761     0.660073     0.781355    Uiso  ? C
   C982       1.0     0.202485     0.610284     0.793316    Uiso  ? C
   H651       1.0     0.241912     0.673922     0.773041    Uiso  ? H
   H652       1.0     0.203654     0.586837     0.788697    Uiso  ? H
   C983       1.0     0.225658     0.627843     0.779637    Uiso  ? C
   C984       1.0     0.247742     0.613358     0.757861    Uiso  ? C
   H653       1.0     0.248148     0.650329     0.722578    Uiso  ? H
   H654       1.0     0.253932     0.574039     0.785729    Uiso  ? H
   C985       1.0     0.255687     0.626668     0.729227    Uiso  ? C
   C986       1.0     0.255770     0.583127     0.763552    Uiso  ? C
   C987       1.0     0.263477     0.606738     0.705929    Uiso  ? C
   C988       1.0     0.262532     0.564706     0.739043    Uiso  ? C
   H655       1.0     0.262785     0.614191     0.682278    Uiso  ? H
   N44        1.0     0.262956     0.577060     0.710995    Uiso  ? N
   H656       1.0     0.262431     0.540244     0.745462    Uiso  ? H
   H657       1.0     0.283094     0.788536     0.315837    Uiso  ? H
   N45        1.0     0.265868     0.830756     0.325829    Uiso  ? N
   H658       1.0     0.252759     0.872091     0.347110    Uiso  ? H
   C989       1.0     0.269628     0.800928     0.331515    Uiso  ? C
   C990       1.0     0.252342     0.847641     0.347539    Uiso  ? C
   C991       1.0     0.254178     0.786486     0.354267    Uiso  ? C
   C992       1.0     0.242187     0.835254     0.374998    Uiso  ? C
   H659       1.0     0.255380     0.762131     0.351915    Uiso  ? H
   H660       1.0     0.233819     0.851997     0.390913    Uiso  ? H
   C993       1.0     0.240006     0.803450     0.377091    Uiso  ? C
   C994       1.0     0.219033     0.788245     0.399353    Uiso  ? C
   H661       1.0     0.188272     0.824736     0.406287    Uiso  ? H
   H662       1.0     0.243342     0.743021     0.398318    Uiso  ? H
   C995       1.0     0.192534     0.802083     0.411685    Uiso  ? C
   C996       1.0     0.224427     0.757159     0.406149    Uiso  ? C
   C997       1.0     0.170687     0.784415     0.426754    Uiso  ? C
   C998       1.0     0.202692     0.741510     0.422750    Uiso  ? C
   H663       1.0     0.150971     0.793742     0.436000    Uiso  ? H
   N46        1.0     0.177650     0.755797     0.433929    Uiso  ? N
   H664       1.0     0.204591     0.717834     0.423856    Uiso  ? H
   H665       1.0     0.831619     0.386327     0.174394    Uiso  ? H
   N47        1.0     0.802010     0.349801     0.173048    Uiso  ? N
   H666       1.0     0.766713     0.315561     0.177627    Uiso  ? H
   C999       1.0     0.809792     0.377025     0.180458    Uiso  ? C
   C1000      1.0     0.774484     0.338198     0.181404    Uiso  ? C
   C1001      1.0     0.790545     0.394219     0.199612    Uiso  ? C
   C1002      1.0     0.754003     0.355300     0.197135    Uiso  ? C
   H667       1.0     0.799744     0.415629     0.207715    Uiso  ? H
   H668       1.0     0.730491     0.345382     0.202356    Uiso  ? H
   C1003      1.0     0.763542     0.382217     0.208852    Uiso  ? C
   C1004      1.0     0.745265     0.397386     0.232889    Uiso  ? C
   H669       1.0     0.744006     0.439545     0.211614    Uiso  ? H
   H670       1.0     0.737005     0.356380     0.260007    Uiso  ? H
   C1005      1.0     0.737901     0.427872     0.230340    Uiso  ? C
   C1006      1.0     0.733076     0.381243     0.258036    Uiso  ? C
   C1007      1.0     0.726621     0.443142     0.255503    Uiso  ? C
   C1008      1.0     0.720073     0.397499     0.282202    Uiso  ? C
   H671       1.0     0.725441     0.467717     0.256576    Uiso  ? H
   N48        1.0     0.721340     0.428425     0.281873    Uiso  ? N
   H672       1.0     0.715214     0.384708     0.302073    Uiso  ? H
