
#======================================================================
# CRYSTAL DATA
#----------------------------------------------------------------------
data_VESTA_phase_1

_chemical_name_common                  ' Atoms. Timestep: 0'
_cell_length_a                         59.070549
_cell_length_b                         59.070549
_cell_length_c                         59.070549
_cell_angle_alpha                      90.000000
_cell_angle_beta                       90.000000
_cell_angle_gamma                      90.000000
_cell_volume                           1.000000
_space_group_name_H-M_alt              'P 1'
_space_group_IT_number                 1

loop_
_space_group_symop_operation_xyz
   'x, y, z'

loop_
   _atom_site_label
   _atom_site_occupancy
   _atom_site_fract_x
   _atom_site_fract_y
   _atom_site_fract_z
   _atom_site_adp_type
   _atom_site_U_iso_or_equiv
   _atom_site_type_symbol
   C1         1.0     0.865974     0.234871     0.192880    Uiso  ? C
   C2         1.0     0.846118     0.245517     0.181745    Uiso  ? C
   C3         1.0     0.834964     0.262971     0.193133    Uiso  ? C
   H1         1.0     0.841708     0.270119     0.208433    Uiso  ? H
   C4         1.0     0.815267     0.271314     0.184961    Uiso  ? C
   H2         1.0     0.807356     0.285335     0.194793    Uiso  ? H
   C5         1.0     0.805316     0.261967     0.165870    Uiso  ? C
   H3         1.0     0.788922     0.268147     0.160824    Uiso  ? H
   C6         1.0     0.815694     0.244568     0.153805    Uiso  ? C
   C7         1.0     0.836830     0.236881     0.161279    Uiso  ? C
   H4         1.0     0.846183     0.223458     0.152882    Uiso  ? H
   C8         1.0     0.805641     0.236443     0.131955    Uiso  ? C
   C9         1.0     0.865511     0.198173     0.232996    Uiso  ? C
   C10        1.0     0.844646     0.186902     0.241438    Uiso  ? C
   C11        1.0     0.831874     0.199742     0.256978    Uiso  ? C
   H5         1.0     0.836726     0.216320     0.263404    Uiso  ? H
   C12        1.0     0.810400     0.191156     0.263552    Uiso  ? C
   H6         1.0     0.800910     0.199803     0.276341    Uiso  ? H
   C13        1.0     0.802308     0.170377     0.255769    Uiso  ? C
   H7         1.0     0.787367     0.163576     0.263051    Uiso  ? H
   C14        1.0     0.814998     0.158001     0.239284    Uiso  ? C
   C15        1.0     0.836449     0.166186     0.231460    Uiso  ? C
   H8         1.0     0.845787     0.158453     0.217616    Uiso  ? H
   C16        1.0     0.805513     0.136525     0.230846    Uiso  ? C
   C17        1.0     0.134729     0.196786     0.238639    Uiso  ? C
   C18        1.0     0.153026     0.183790     0.250219    Uiso  ? C
   C19        1.0     0.157715     0.187280     0.272865    Uiso  ? C
   H9         1.0     0.151582     0.201165     0.283797    Uiso  ? H
   C20        1.0     0.172770     0.172848     0.284254    Uiso  ? C
   H10        1.0     0.177886     0.174979     0.301644    Uiso  ? H
   C21        1.0     0.185165     0.156472     0.271265    Uiso  ? C
   H11        1.0     0.195755     0.144576     0.281004    Uiso  ? H
   C22        1.0     0.182301     0.153409     0.248385    Uiso  ? C
   C23        1.0     0.165762     0.168020     0.237460    Uiso  ? C
   H12        1.0     0.160983     0.164504     0.220057    Uiso  ? H
   C24        1.0     0.195754     0.135611     0.235902    Uiso  ? C
   C25        1.0     0.137378     0.233270     0.194731    Uiso  ? C
   C26        1.0     0.154620     0.245610     0.182151    Uiso  ? C
   C27        1.0     0.159062     0.268563     0.186466    Uiso  ? C
   H13        1.0     0.148444     0.278171     0.197644    Uiso  ? H
   C28        1.0     0.175824     0.280938     0.174824    Uiso  ? C
   H14        1.0     0.179432     0.298228     0.179475    Uiso  ? H
   C29        1.0     0.187895     0.269914     0.157800    Uiso  ? C
   H15        1.0     0.201356     0.278739     0.148904    Uiso  ? H
   C30        1.0     0.182880     0.246124     0.151402    Uiso  ? C
   C31        1.0     0.167017     0.235217     0.165464    Uiso  ? C
   H16        1.0     0.162446     0.217494     0.161580    Uiso  ? H
   C32        1.0     0.193024     0.234791     0.131385    Uiso  ? C
   C33        1.0     0.765955     0.190686     0.865546    Uiso  ? C
   C34        1.0     0.755290     0.175970     0.847751    Uiso  ? C
   C35        1.0     0.734303     0.182829     0.839200    Uiso  ? C
   H17        1.0     0.726743     0.199007     0.844334    Uiso  ? H
   C36        1.0     0.725029     0.171499     0.820680    Uiso  ? C
   H18        1.0     0.710929     0.178406     0.813578    Uiso  ? H
   C37        1.0     0.735676     0.152039     0.811338    Uiso  ? C
   H19        1.0     0.728454     0.143820     0.796867    Uiso  ? H
   C38        1.0     0.757220     0.145229     0.819637    Uiso  ? C
   C39        1.0     0.766983     0.158044     0.837123    Uiso  ? C
   H20        1.0     0.783466     0.152758     0.843622    Uiso  ? H
   C40        1.0     0.768301     0.125539     0.807441    Uiso  ? C
   C41        1.0     0.766690     0.198150     0.133116    Uiso  ? C
   C42        1.0     0.756656     0.188438     0.154437    Uiso  ? C
   C43        1.0     0.742964     0.201931     0.168866    Uiso  ? C
   H21        1.0     0.737682     0.218874     0.164109    Uiso  ? H
   C44        1.0     0.731444     0.191008     0.186698    Uiso  ? C
   H22        1.0     0.718532     0.199886     0.194803    Uiso  ? H
   C45        1.0     0.737245     0.169324     0.193944    Uiso  ? C
   H23        1.0     0.727951     0.163231     0.208339    Uiso  ? H
   C46        1.0     0.753732     0.157517     0.181873    Uiso  ? C
   C47        1.0     0.761931     0.166284     0.161761    Uiso  ? C
   H24        1.0     0.775743     0.157960     0.153058    Uiso  ? H
   C48        1.0     0.762437     0.136709     0.193017    Uiso  ? C
   C49        1.0     0.805548     0.234566     0.866230    Uiso  ? C
   C50        1.0     0.816329     0.245043     0.846445    Uiso  ? C
   C51        1.0     0.809268     0.265757     0.838291    Uiso  ? C
   H25        1.0     0.794131     0.272676     0.844925    Uiso  ? H
   C52        1.0     0.819945     0.275886     0.820018    Uiso  ? C
   H26        1.0     0.812079     0.290430     0.813060    Uiso  ? H
   C53        1.0     0.839892     0.266254     0.809447    Uiso  ? C
   H27        1.0     0.846841     0.274606     0.794706    Uiso  ? H
   C54        1.0     0.845842     0.244350     0.816368    Uiso  ? C
   C55        1.0     0.832733     0.233329     0.833498    Uiso  ? C
   H28        1.0     0.836828     0.215194     0.837231    Uiso  ? H
   C56        1.0     0.862800     0.232283     0.801767    Uiso  ? C
   C57        1.0     0.767885     0.864754     0.191402    Uiso  ? C
   C58        1.0     0.757105     0.846999     0.176870    Uiso  ? C
   C59        1.0     0.733643     0.843808     0.177740    Uiso  ? C
   H29        1.0     0.723220     0.853593     0.188539    Uiso  ? H
   C60        1.0     0.722713     0.828484     0.164027    Uiso  ? C
   H30        1.0     0.704903     0.826180     0.164202    Uiso  ? H
   C61        1.0     0.735442     0.814951     0.149282    Uiso  ? C
   H31        1.0     0.726365     0.804206     0.137497    Uiso  ? H
   C62        1.0     0.759911     0.817282     0.148307    Uiso  ? C
   C63        1.0     0.770299     0.834106     0.161950    Uiso  ? C
   H32        1.0     0.788746     0.837246     0.161335    Uiso  ? H
   C64        1.0     0.771955     0.804272     0.130504    Uiso  ? C
   C65        1.0     0.805592     0.866337     0.231730    Uiso  ? C
   C66        1.0     0.819906     0.849911     0.244736    Uiso  ? C
   C67        1.0     0.815558     0.846244     0.267752    Uiso  ? C
   H33        1.0     0.801074     0.853168     0.273680    Uiso  ? H
   C68        1.0     0.828817     0.831990     0.280517    Uiso  ? C
   H34        1.0     0.826449     0.830390     0.299147    Uiso  ? H
   C69        1.0     0.846484     0.821314     0.270534    Uiso  ? C
   H35        1.0     0.855152     0.807905     0.280514    Uiso  ? H
   C70        1.0     0.851803     0.823732     0.248258    Uiso  ? C
   C71        1.0     0.838204     0.838110     0.234953    Uiso  ? C
   H36        1.0     0.842186     0.839916     0.217282    Uiso  ? H
   C72        1.0     0.869445     0.809657     0.237993    Uiso  ? C
   C73        1.0     0.867725     0.191571     0.765586    Uiso  ? C
   C74        1.0     0.848387     0.179926     0.755107    Uiso  ? C
   C75        1.0     0.839206     0.189274     0.734801    Uiso  ? C
   H37        1.0     0.846245     0.203190     0.726436    Uiso  ? H
   C76        1.0     0.822685     0.178019     0.723172    Uiso  ? C
   H38        1.0     0.819085     0.182084     0.705891    Uiso  ? H
   C77        1.0     0.811616     0.158734     0.733450    Uiso  ? C
   H39        1.0     0.796376     0.152326     0.725155    Uiso  ? H
   C78        1.0     0.817415     0.151494     0.755320    Uiso  ? C
   C79        1.0     0.836142     0.162869     0.765686    Uiso  ? C
   H40        1.0     0.841669     0.156545     0.781652    Uiso  ? H
   C80        1.0     0.805594     0.133029     0.767113    Uiso  ? C
   C81        1.0     0.134287     0.238026     0.804634    Uiso  ? C
   C82        1.0     0.155734     0.247830     0.814881    Uiso  ? C
   C83        1.0     0.168346     0.264909     0.804936    Uiso  ? C
   H41        1.0     0.163084     0.274391     0.790380    Uiso  ? H
   C84        1.0     0.188598     0.272869     0.815809    Uiso  ? C
   H42        1.0     0.198711     0.285507     0.806987    Uiso  ? H
   C85        1.0     0.196053     0.261233     0.833906    Uiso  ? C
   H43        1.0     0.210343     0.267244     0.841252    Uiso  ? H
   C86        1.0     0.184457     0.244088     0.844907    Uiso  ? C
   C87        1.0     0.162984     0.238460     0.835672    Uiso  ? C
   H44        1.0     0.153045     0.225427     0.844561    Uiso  ? H
   C88        1.0     0.195718     0.232991     0.864740    Uiso  ? C
   C89        1.0     0.234619     0.197341     0.135821    Uiso  ? C
   C90        1.0     0.245798     0.186585     0.157024    Uiso  ? C
   C91        1.0     0.267637     0.194820     0.163532    Uiso  ? C
   H45        1.0     0.276998     0.207674     0.154846    Uiso  ? H
   C92        1.0     0.278031     0.186722     0.182836    Uiso  ? C
   H46        1.0     0.295277     0.193004     0.188619    Uiso  ? H
   C93        1.0     0.268113     0.169031     0.194910    Uiso  ? C
   H47        1.0     0.276924     0.160041     0.206879    Uiso  ? H
   C94        1.0     0.246009     0.161485     0.188889    Uiso  ? C
   C95        1.0     0.234108     0.171040     0.170410    Uiso  ? C
   H48        1.0     0.217475     0.166470     0.164407    Uiso  ? H
   C96        1.0     0.235797     0.141274     0.199943    Uiso  ? C
   O1         1.0     0.879621     0.222241     0.181556    Uiso  ? O
   O2         1.0     0.870699     0.239344     0.213246    Uiso  ? O
   O3         1.0     0.881766     0.185668     0.225470    Uiso  ? O
   O4         1.0     0.868143     0.219140     0.234812    Uiso  ? O
   O5         1.0     0.134276     0.196608     0.216608    Uiso  ? O
   O6         1.0     0.122286     0.210071     0.249728    Uiso  ? O
   O7         1.0     0.136635     0.211951     0.194431    Uiso  ? O
   O8         1.0     0.124697     0.244327     0.207326    Uiso  ? O
   O9         1.0     0.786720     0.190884     0.867351    Uiso  ? O
   O10        1.0     0.754328     0.204083     0.877891    Uiso  ? O
   O11        1.0     0.775406     0.184717     0.119142    Uiso  ? O
   O12        1.0     0.764910     0.220111     0.129781    Uiso  ? O
   O13        1.0     0.817160     0.222965     0.119081    Uiso  ? O
   O14        1.0     0.784189     0.239009     0.128701    Uiso  ? O
   O15        1.0     0.805939     0.212769     0.868092    Uiso  ? O
   O16        1.0     0.791551     0.245697     0.877828    Uiso  ? O
   O17        1.0     0.789117     0.867894     0.190368    Uiso  ? O
   O18        1.0     0.755459     0.877068     0.203268    Uiso  ? O
   O19        1.0     0.809092     0.869486     0.211016    Uiso  ? O
   O20        1.0     0.792058     0.879125     0.242497    Uiso  ? O
   O21        1.0     0.816522     0.121978     0.219040    Uiso  ? O
   O22        1.0     0.784008     0.133705     0.231701    Uiso  ? O
   O23        1.0     0.774895     0.124409     0.180658    Uiso  ? O
   O24        1.0     0.763424     0.135268     0.214907    Uiso  ? O
   O25        1.0     0.869572     0.190868     0.786768    Uiso  ? O
   O26        1.0     0.880767     0.204737     0.753902    Uiso  ? O
   O27        1.0     0.866872     0.211171     0.804719    Uiso  ? O
   O28        1.0     0.875737     0.244080     0.787973    Uiso  ? O
   O29        1.0     0.119312     0.228218     0.815995    Uiso  ? O
   O30        1.0     0.132052     0.237949     0.783131    Uiso  ? O
   O31        1.0     0.126344     0.183781     0.779795    Uiso  ? O
   O32        1.0     0.134804     0.217747     0.765381    Uiso  ? O
   O33        1.0     0.184326     0.221757     0.878676    Uiso  ? O
   O34        1.0     0.217436     0.232581     0.866005    Uiso  ? O
   O35        1.0     0.193561     0.213314     0.129688    Uiso  ? O
   O36        1.0     0.204491     0.247167     0.117544    Uiso  ? O
   O37        1.0     0.213996     0.193950     0.132349    Uiso  ? O
   O38        1.0     0.246170     0.208980     0.122689    Uiso  ? O
   O39        1.0     0.228821     0.182385     0.880537    Uiso  ? O
   O40        1.0     0.238612     0.216479     0.867823    Uiso  ? O
   O41        1.0     0.820727     0.870264     0.772684    Uiso  ? O
   O42        1.0     0.785999     0.857583     0.765087    Uiso  ? O
   O43        1.0     0.785647     0.872079     0.818157    Uiso  ? O
   O44        1.0     0.753187     0.880007     0.800422    Uiso  ? O
   O45        1.0     0.790067     0.123406     0.808987    Uiso  ? O
   O46        1.0     0.756627     0.112141     0.795158    Uiso  ? O
   O47        1.0     0.809478     0.128496     0.788169    Uiso  ? O
   O48        1.0     0.792454     0.119907     0.756072    Uiso  ? O
   O49        1.0     0.106525     0.174635     0.171840    Uiso  ? O
   O50        1.0     0.825022     0.171092     0.103748    Uiso  ? O
   O51        1.0     0.823779     0.109157     0.165819    Uiso  ? O
   O52        1.0     0.108281     0.175673     0.830185    Uiso  ? O
   O53        1.0     0.174949     0.177904     0.888285    Uiso  ? O
   O54        1.0     0.837734     0.884930     0.820773    Uiso  ? O
   Zn1        1.0     0.104665     0.196980     0.198455    Uiso  ? Zn
   Zn2        1.0     0.103934     0.236742     0.235172    Uiso  ? Zn
   Zn3        1.0     0.800874     0.196357     0.899873    Uiso  ? Zn
   Zn4        1.0     0.765317     0.232350     0.896633    Uiso  ? Zn
   Zn5        1.0     0.802212     0.104144     0.192831    Uiso  ? Zn
   Zn6        1.0     0.765298     0.898058     0.230932    Uiso  ? Zn
   Zn7        1.0     0.104237     0.198391     0.804565    Uiso  ? Zn
   Zn8        1.0     0.102778     0.232869     0.764147    Uiso  ? Zn
   Zn9        1.0     0.200975     0.196944     0.898735    Uiso  ? Zn
   Zn10       1.0     0.232492     0.233476     0.898920    Uiso  ? Zn
   Zn11       1.0     0.810498     0.890154     0.800057    Uiso  ? Zn
   Zn12       1.0     0.769327     0.889580     0.767750    Uiso  ? Zn
   C97        1.0     0.142859     0.758576     0.801475    Uiso  ? C
   C98        1.0     0.160915     0.748007     0.815917    Uiso  ? C
   C99        1.0     0.166153     0.725495     0.813466    Uiso  ? C
   H49        1.0     0.157276     0.715798     0.800683    Uiso  ? H
   C100       1.0     0.181620     0.715299     0.827668    Uiso  ? C
   H50        1.0     0.185253     0.697845     0.827802    Uiso  ? H
   C101       1.0     0.191811     0.728029     0.844273    Uiso  ? C
   H51        1.0     0.203476     0.718566     0.855617    Uiso  ? H
   C102       1.0     0.187466     0.751061     0.847646    Uiso  ? C
   C103       1.0     0.172015     0.761071     0.832608    Uiso  ? C
   H52        1.0     0.166989     0.778178     0.834422    Uiso  ? H
   C104       1.0     0.196483     0.762365     0.868336    Uiso  ? C
   C105       1.0     0.144236     0.800570     0.763135    Uiso  ? C
   C106       1.0     0.160739     0.816222     0.751142    Uiso  ? C
   C107       1.0     0.163417     0.813874     0.728050    Uiso  ? C
   H53        1.0     0.153960     0.800659     0.717041    Uiso  ? H
   C108       1.0     0.176818     0.828721     0.715729    Uiso  ? C
   H54        1.0     0.178111     0.827593     0.697513    Uiso  ? H
   C109       1.0     0.189323     0.845524     0.727002    Uiso  ? C
   H55        1.0     0.199826     0.856907     0.717598    Uiso  ? H
   C110       1.0     0.188963     0.845992     0.750763    Uiso  ? C
   C111       1.0     0.173986     0.832085     0.763330    Uiso  ? C
   H56        1.0     0.170777     0.834389     0.781547    Uiso  ? H
   C112       1.0     0.198913     0.867011     0.762930    Uiso  ? C
   C113       1.0     0.870466     0.797594     0.760430    Uiso  ? C
   C114       1.0     0.849133     0.807776     0.751217    Uiso  ? C
   C115       1.0     0.839193     0.797709     0.732102    Uiso  ? C
   H57        1.0     0.847986     0.783731     0.723731    Uiso  ? H
   C116       1.0     0.816567     0.804870     0.726506    Uiso  ? C
   H58        1.0     0.807676     0.796048     0.712135    Uiso  ? H
   C117       1.0     0.805540     0.822657     0.738017    Uiso  ? C
   H59        1.0     0.788401     0.827568     0.734371    Uiso  ? H
   C118       1.0     0.817678     0.835100     0.753516    Uiso  ? C
   C119       1.0     0.839034     0.827172     0.761168    Uiso  ? C
   H60        1.0     0.846257     0.837074     0.774018    Uiso  ? H
   C120       1.0     0.807135     0.855223     0.764210    Uiso  ? C
   C121       1.0     0.875373     0.759463     0.804611    Uiso  ? C
   C122       1.0     0.856029     0.748960     0.817097    Uiso  ? C
   C123       1.0     0.845406     0.730609     0.807546    Uiso  ? C
   H61        1.0     0.851945     0.725212     0.791599    Uiso  ? H
   C124       1.0     0.827657     0.719499     0.817605    Uiso  ? C
   H62        1.0     0.817265     0.707693     0.809341    Uiso  ? H
   C125       1.0     0.817556     0.728207     0.836808    Uiso  ? C
   H63        1.0     0.803886     0.718767     0.843959    Uiso  ? H
   C126       1.0     0.827001     0.746759     0.848865    Uiso  ? C
   C127       1.0     0.846410     0.757916     0.837971    Uiso  ? C
   H64        1.0     0.852729     0.772781     0.846381    Uiso  ? H
   C128       1.0     0.814277     0.757203     0.868092    Uiso  ? C
   C129       1.0     0.233018     0.803725     0.135567    Uiso  ? C
   C130       1.0     0.242428     0.812943     0.156527    Uiso  ? C
   C131       1.0     0.259800     0.801572     0.167676    Uiso  ? C
   H65        1.0     0.266883     0.786801     0.160750    Uiso  ? H
   C132       1.0     0.264579     0.806552     0.190212    Uiso  ? C
   H66        1.0     0.276065     0.796788     0.200857    Uiso  ? H
   C133       1.0     0.255666     0.826247     0.199336    Uiso  ? C
   H67        1.0     0.262093     0.831661     0.214517    Uiso  ? H
   C134       1.0     0.241233     0.840395     0.187079    Uiso  ? C
   C135       1.0     0.234325     0.833341     0.165368    Uiso  ? C
   H68        1.0     0.221430     0.843056     0.156819    Uiso  ? H
   C136       1.0     0.232839     0.861956     0.196550    Uiso  ? C
   C137       1.0     0.233794     0.804303     0.868104    Uiso  ? C
   C138       1.0     0.247266     0.817165     0.849680    Uiso  ? C
   C139       1.0     0.268191     0.808692     0.842367    Uiso  ? C
   H69        1.0     0.277674     0.794929     0.850038    Uiso  ? H
   C140       1.0     0.278907     0.817913     0.823349    Uiso  ? C
   H70        1.0     0.295081     0.811435     0.817800    Uiso  ? H
   C141       1.0     0.268371     0.835882     0.812325    Uiso  ? C
   H71        1.0     0.276947     0.842977     0.797800    Uiso  ? H
   C142       1.0     0.248219     0.844321     0.819131    Uiso  ? C
   C143       1.0     0.237887     0.836049     0.837556    Uiso  ? C
   H72        1.0     0.221100     0.841983     0.842777    Uiso  ? H
   C144       1.0     0.238471     0.862580     0.805999    Uiso  ? C
   C145       1.0     0.194021     0.761332     0.137475    Uiso  ? C
   C146       1.0     0.183201     0.751887     0.158011    Uiso  ? C
   C147       1.0     0.196355     0.735278     0.169381    Uiso  ? C
   H73        1.0     0.210954     0.729847     0.161043    Uiso  ? H
   C148       1.0     0.188692     0.723662     0.189444    Uiso  ? C
   H74        1.0     0.198568     0.710146     0.196024    Uiso  ? H
   C149       1.0     0.168885     0.731686     0.199406    Uiso  ? C
   H75        1.0     0.162912     0.724246     0.215288    Uiso  ? H
   C150       1.0     0.155372     0.747829     0.188123    Uiso  ? C
   C151       1.0     0.162559     0.758049     0.167101    Uiso  ? C
   H76        1.0     0.153317     0.771190     0.158290    Uiso  ? H
   C152       1.0     0.134827     0.757122     0.199235    Uiso  ? C
   C153       1.0     0.241471     0.135585     0.805621    Uiso  ? C
   C154       1.0     0.250968     0.156519     0.814927    Uiso  ? C
   C155       1.0     0.268470     0.168836     0.803884    Uiso  ? C
   H77        1.0     0.275286     0.161954     0.788015    Uiso  ? H
   C156       1.0     0.277271     0.187710     0.814905    Uiso  ? C
   H78        1.0     0.289367     0.198155     0.806884    Uiso  ? H
   C157       1.0     0.268484     0.196366     0.834874    Uiso  ? C
   H79        1.0     0.273964     0.212046     0.842157    Uiso  ? H
   C158       1.0     0.251354     0.184729     0.846559    Uiso  ? C
   C159       1.0     0.244247     0.164041     0.836449    Uiso  ? C
   H80        1.0     0.230386     0.154169     0.843747    Uiso  ? H
   C160       1.0     0.240388     0.194591     0.866606    Uiso  ? C
   C161       1.0     0.201031     0.135806     0.767643    Uiso  ? C
   C162       1.0     0.191759     0.158209     0.760846    Uiso  ? C
   C163       1.0     0.206243     0.173084     0.749954    Uiso  ? C
   H81        1.0     0.223268     0.168702     0.746169    Uiso  ? H
   C164       1.0     0.199565     0.195546     0.745994    Uiso  ? C
   H82        1.0     0.212228     0.208245     0.740252    Uiso  ? H
   C165       1.0     0.177947     0.203422     0.751615    Uiso  ? C
   H83        1.0     0.173951     0.221400     0.747958    Uiso  ? H
   C166       1.0     0.162458     0.187791     0.761102    Uiso  ? C
   C167       1.0     0.169549     0.165149     0.767111    Uiso  ? C
   H84        1.0     0.155600     0.153896     0.771438    Uiso  ? H
   C168       1.0     0.139412     0.196698     0.768535    Uiso  ? C
   C169       1.0     0.124797     0.817333     0.236222    Uiso  ? C
   C170       1.0     0.138468     0.834788     0.249137    Uiso  ? C
   C171       1.0     0.139621     0.833901     0.272989    Uiso  ? C
   H85        1.0     0.130821     0.821296     0.283368    Uiso  ? H
   C172       1.0     0.151937     0.849967     0.285239    Uiso  ? C
   H86        1.0     0.151595     0.850583     0.304104    Uiso  ? H
   C173       1.0     0.165698     0.864681     0.273822    Uiso  ? C
   H87        1.0     0.176736     0.875240     0.283663    Uiso  ? H
   C174       1.0     0.165884     0.865206     0.250861    Uiso  ? C
   C175       1.0     0.151578     0.851136     0.238568    Uiso  ? C
   H88        1.0     0.152493     0.851705     0.220265    Uiso  ? H
   C176       1.0     0.183240     0.878507     0.237765    Uiso  ? C
   C177       1.0     0.857009     0.769739     0.203272    Uiso  ? C
   C178       1.0     0.835123     0.760357     0.194196    Uiso  ? C
   C179       1.0     0.825045     0.741087     0.203927    Uiso  ? C
   H89        1.0     0.829774     0.734608     0.219702    Uiso  ? H
   C180       1.0     0.805582     0.731937     0.194546    Uiso  ? C
   H90        1.0     0.795885     0.718906     0.203515    Uiso  ? H
   C181       1.0     0.798629     0.737601     0.173185    Uiso  ? C
   H91        1.0     0.786261     0.726858     0.164227    Uiso  ? H
   C182       1.0     0.809923     0.755180     0.161421    Uiso  ? C
   C183       1.0     0.828050     0.765402     0.171887    Uiso  ? C
   H92        1.0     0.837114     0.778533     0.163199    Uiso  ? H
   C184       1.0     0.802989     0.761679     0.137950    Uiso  ? C
   C185       1.0     0.765576     0.807438     0.874507    Uiso  ? C
   C186       1.0     0.752000     0.821656     0.858162    Uiso  ? C
   C187       1.0     0.728441     0.823996     0.859445    Uiso  ? C
   H93        1.0     0.718520     0.812802     0.871109    Uiso  ? H
   C188       1.0     0.716919     0.839857     0.847168    Uiso  ? C
   H94        1.0     0.698627     0.841267     0.847270    Uiso  ? H
   C189       1.0     0.728793     0.855468     0.832875    Uiso  ? C
   H95        1.0     0.718766     0.868141     0.824575    Uiso  ? H
   C190       1.0     0.752454     0.853613     0.831451    Uiso  ? C
   C191       1.0     0.763942     0.836171     0.843173    Uiso  ? C
   H96        1.0     0.782203     0.836445     0.841875    Uiso  ? H
   C192       1.0     0.763923     0.869699     0.816266    Uiso  ? C
   O55        1.0     0.141003     0.779976     0.801567    Uiso  ? O
   O56        1.0     0.126961     0.746507     0.792012    Uiso  ? O
   O57        1.0     0.142625     0.800124     0.784244    Uiso  ? O
   O58        1.0     0.129776     0.789485     0.751335    Uiso  ? O
   O59        1.0     0.883790     0.809765     0.772637    Uiso  ? O
   O60        1.0     0.872864     0.775991     0.760585    Uiso  ? O
   O61        1.0     0.889338     0.770787     0.816397    Uiso  ? O
   O62        1.0     0.876651     0.759700     0.782840    Uiso  ? O
   O63        1.0     0.222167     0.815455     0.121519    Uiso  ? O
   O64        1.0     0.233361     0.782588     0.132818    Uiso  ? O
   O65        1.0     0.212630     0.806979     0.870809    Uiso  ? O
   O66        1.0     0.243988     0.790086     0.880352    Uiso  ? O
   O67        1.0     0.197450     0.783666     0.869663    Uiso  ? O
   O68        1.0     0.205627     0.750673     0.883819    Uiso  ? O
   O69        1.0     0.182406     0.773766     0.124339    Uiso  ? O
   O70        1.0     0.215961     0.761608     0.135550    Uiso  ? O
   O71        1.0     0.231648     0.121252     0.817169    Uiso  ? O
   O72        1.0     0.242549     0.133233     0.784567    Uiso  ? O
   O73        1.0     0.189535     0.122471     0.780115    Uiso  ? O
   O74        1.0     0.223092     0.132674     0.764616    Uiso  ? O
   O75        1.0     0.198869     0.868123     0.783979    Uiso  ? O
   O76        1.0     0.210985     0.880720     0.751847    Uiso  ? O
   O77        1.0     0.216926     0.866704     0.807353    Uiso  ? O
   O78        1.0     0.249487     0.874221     0.790561    Uiso  ? O
   O79        1.0     0.121080     0.819826     0.214599    Uiso  ? O
   O80        1.0     0.116780     0.800123     0.246477    Uiso  ? O
   O81        1.0     0.123332     0.771674     0.188277    Uiso  ? O
   O82        1.0     0.131817     0.754564     0.221067    Uiso  ? O
   O83        1.0     0.864044     0.789029     0.196038    Uiso  ? O
   O84        1.0     0.868912     0.759515     0.217864    Uiso  ? O
   O85        1.0     0.872480     0.810300     0.216443    Uiso  ? O
   O86        1.0     0.882963     0.797211     0.249803    Uiso  ? O
   O87        1.0     0.810431     0.780585     0.129829    Uiso  ? O
   O88        1.0     0.787995     0.749856     0.126847    Uiso  ? O
   O89        1.0     0.824685     0.770199     0.881084    Uiso  ? O
   O90        1.0     0.793302     0.752426     0.871514    Uiso  ? O
   O91        1.0     0.786490     0.810675     0.876983    Uiso  ? O
   O92        1.0     0.755721     0.793197     0.886980    Uiso  ? O
   O93        1.0     0.793988     0.805554     0.128346    Uiso  ? O
   O94        1.0     0.760269     0.792275     0.116664    Uiso  ? O
   O95        1.0     0.196024     0.135073     0.214222    Uiso  ? O
   O96        1.0     0.205768     0.119806     0.246481    Uiso  ? O
   O97        1.0     0.214951     0.135869     0.195302    Uiso  ? O
   O98        1.0     0.246717     0.128871     0.213270    Uiso  ? O
   O99        1.0     0.221836     0.875957     0.184237    Uiso  ? O
   O100       1.0     0.239367     0.868893     0.216379    Uiso  ? O
   O101       1.0     0.179930     0.882460     0.216838    Uiso  ? O
   O102       1.0     0.201815     0.885375     0.247137    Uiso  ? O
   O103       1.0     0.110304     0.824116     0.821023    Uiso  ? O
   O104       1.0     0.168093     0.821055     0.102055    Uiso  ? O
   O105       1.0     0.182704     0.109128     0.831267    Uiso  ? O
   O106       1.0     0.106432     0.815301     0.161336    Uiso  ? O
   O107       1.0     0.840110     0.813095     0.894295    Uiso  ? O
   O108       1.0     0.181323     0.897796     0.164033    Uiso  ? O
   Zn13       1.0     0.109312     0.797710     0.798699    Uiso  ? Zn
   Zn14       1.0     0.110205     0.761637     0.763932    Uiso  ? Zn
   Zn15       1.0     0.195909     0.799644     0.101874    Uiso  ? Zn
   Zn16       1.0     0.231241     0.764201     0.101994    Uiso  ? Zn
   Zn17       1.0     0.205199     0.104245     0.804399    Uiso  ? Zn
   Zn18       1.0     0.240173     0.101942     0.765805    Uiso  ? Zn
   Zn19       1.0     0.102237     0.799070     0.193633    Uiso  ? Zn
   Zn20       1.0     0.102093     0.767037     0.237871    Uiso  ? Zn
   Zn21       1.0     0.810001     0.795183     0.898087    Uiso  ? Zn
   Zn22       1.0     0.770443     0.761339     0.898453    Uiso  ? Zn
   Zn23       1.0     0.200555     0.103117     0.195573    Uiso  ? Zn
   Zn24       1.0     0.235316     0.102533     0.233949    Uiso  ? Zn
   H97        1.0     0.164841     0.833031     0.892570    Uiso  ? H
   H98        1.0     0.158368     0.818293     0.115225    Uiso  ? H
   H99        1.0     0.820266     0.162287     0.116762    Uiso  ? H
   H100       1.0     0.839200     0.167398     0.896257    Uiso  ? H
   H101       1.0     0.852482     0.891783     0.816579    Uiso  ? H
   H102       1.0     0.837160     0.874138     0.832460    Uiso  ? H
   H103       1.0     0.119317     0.163318     0.828259    Uiso  ? H
   H104       1.0     0.105765     0.180745     0.845667    Uiso  ? H
   H105       1.0     0.177612     0.884982     0.156483    Uiso  ? H
   H106       1.0     0.176615     0.115992     0.160372    Uiso  ? H
   H107       1.0     0.113643     0.180195     0.158076    Uiso  ? H
   H108       1.0     0.894257     0.160385     0.169456    Uiso  ? H
   H109       1.0     0.160717     0.184633     0.883115    Uiso  ? H
   H110       1.0     0.177298     0.161992     0.885925    Uiso  ? H
   H111       1.0     0.119910     0.823842     0.159772    Uiso  ? H
   H112       1.0     0.895099     0.809552     0.147639    Uiso  ? H
   H113       1.0     0.839496     0.111772     0.170570    Uiso  ? H
   H114       1.0     0.820635     0.102871     0.151399    Uiso  ? H
   H115       1.0     0.836264     0.826867     0.884764    Uiso  ? H
   H116       1.0     0.852331     0.817067     0.105301    Uiso  ? H
   H117       1.0     0.166271     0.109387     0.828418    Uiso  ? H
   H118       1.0     0.189424     0.112579     0.845848    Uiso  ? H
   H119       1.0     0.119858     0.835885     0.816701    Uiso  ? H
   H120       1.0     0.104956     0.823634     0.836461    Uiso  ? H
   C193       1.0     0.869939     0.365788     0.417397    Uiso  ? C
   C194       1.0     0.854385     0.352731     0.432078    Uiso  ? C
   C195       1.0     0.853379     0.328047     0.430553    Uiso  ? C
   H121       1.0     0.863919     0.317661     0.419508    Uiso  ? H
   C196       1.0     0.836941     0.316714     0.441789    Uiso  ? C
   H122       1.0     0.833442     0.299118     0.437506    Uiso  ? H
   C197       1.0     0.822861     0.328532     0.456732    Uiso  ? C
   H123       1.0     0.810541     0.319795     0.466810    Uiso  ? H
   C198       1.0     0.824041     0.352025     0.459782    Uiso  ? C
   C199       1.0     0.839848     0.364000     0.446806    Uiso  ? C
   H124       1.0     0.841373     0.382349     0.448079    Uiso  ? H
   C200       1.0     0.807681     0.365331     0.474011    Uiso  ? C
   C201       1.0     0.855199     0.405105     0.364618    Uiso  ? C
   C202       1.0     0.833002     0.413443     0.356971    Uiso  ? C
   C203       1.0     0.820197     0.399045     0.343670    Uiso  ? C
   H125       1.0     0.826430     0.384015     0.334542    Uiso  ? H
   C204       1.0     0.797742     0.406047     0.337090    Uiso  ? C
   H126       1.0     0.788533     0.395720     0.325274    Uiso  ? H
   C205       1.0     0.788706     0.426280     0.344141    Uiso  ? C
   H127       1.0     0.771342     0.430949     0.339304    Uiso  ? H
   C206       1.0     0.801558     0.441330     0.357941    Uiso  ? C
   C207       1.0     0.824412     0.435132     0.362624    Uiso  ? C
   H128       1.0     0.834505     0.445191     0.373521    Uiso  ? H
   C208       1.0     0.791606     0.463154     0.365111    Uiso  ? C
   C209       1.0     0.131090     0.405119     0.367306    Uiso  ? C
   C210       1.0     0.149996     0.416387     0.356270    Uiso  ? C
   C211       1.0     0.159229     0.406136     0.336460    Uiso  ? C
   H129       1.0     0.153554     0.389392     0.330252    Uiso  ? H
   C212       1.0     0.176376     0.417010     0.324549    Uiso  ? C
   H130       1.0     0.180055     0.411139     0.308670    Uiso  ? H
   C213       1.0     0.186757     0.436109     0.332297    Uiso  ? C
   H131       1.0     0.200572     0.442933     0.322372    Uiso  ? H
   C214       1.0     0.178623     0.446950     0.352125    Uiso  ? C
   C215       1.0     0.159402     0.437368     0.364271    Uiso  ? C
   H132       1.0     0.153325     0.445254     0.377997    Uiso  ? H
   C216       1.0     0.191429     0.466032     0.362150    Uiso  ? C
   C217       1.0     0.128008     0.371209     0.408625    Uiso  ? C
   C218       1.0     0.145089     0.359309     0.423136    Uiso  ? C
   C219       1.0     0.145846     0.336198     0.422678    Uiso  ? C
   H133       1.0     0.134592     0.326521     0.412454    Uiso  ? H
   C220       1.0     0.161403     0.324620     0.435923    Uiso  ? C
   H134       1.0     0.163731     0.307273     0.433615    Uiso  ? H
   C221       1.0     0.176634     0.336286     0.448760    Uiso  ? C
   H135       1.0     0.187388     0.326638     0.460681    Uiso  ? H
   C222       1.0     0.176567     0.359682     0.449554    Uiso  ? C
   C223       1.0     0.159330     0.371513     0.436527    Uiso  ? C
   H136       1.0     0.158134     0.389903     0.437519    Uiso  ? H
   C224       1.0     0.190509     0.370828     0.467019    Uiso  ? C
   C225       1.0     0.768542     0.399415     0.543736    Uiso  ? C
   C226       1.0     0.760524     0.408112     0.566086    Uiso  ? C
   C227       1.0     0.744865     0.396311     0.579041    Uiso  ? C
   H137       1.0     0.739761     0.380064     0.572969    Uiso  ? H
   C228       1.0     0.738303     0.403565     0.600434    Uiso  ? C
   H138       1.0     0.727843     0.393038     0.610284    Uiso  ? H
   C229       1.0     0.746649     0.424436     0.608577    Uiso  ? C
   H139       1.0     0.742894     0.431091     0.625071    Uiso  ? H
   C230       1.0     0.763052     0.437008     0.596776    Uiso  ? C
   C231       1.0     0.770786     0.427394     0.575527    Uiso  ? C
   H140       1.0     0.781328     0.438716     0.566018    Uiso  ? H
   C232       1.0     0.772281     0.458772     0.605007    Uiso  ? C
   C233       1.0     0.755784     0.409886     0.470747    Uiso  ? C
   C234       1.0     0.744039     0.423471     0.452904    Uiso  ? C
   C235       1.0     0.722314     0.416993     0.443561    Uiso  ? C
   H141       1.0     0.712653     0.403737     0.451565    Uiso  ? H
   C236       1.0     0.712382     0.428327     0.425467    Uiso  ? C
   H142       1.0     0.695815     0.423233     0.419053    Uiso  ? H
   C237       1.0     0.724618     0.445195     0.415148    Uiso  ? C
   H143       1.0     0.715947     0.453090     0.400831    Uiso  ? H
   C238       1.0     0.745503     0.452400     0.423146    Uiso  ? C
   C239       1.0     0.755176     0.441839     0.442259    Uiso  ? C
   H144       1.0     0.773256     0.446105     0.447881    Uiso  ? H
   C240       1.0     0.759480     0.468519     0.410413    Uiso  ? C
   C241       1.0     0.805227     0.363540     0.525468    Uiso  ? C
   C242       1.0     0.821072     0.349851     0.540872    Uiso  ? C
   C243       1.0     0.820855     0.325580     0.542037    Uiso  ? C
   H145       1.0     0.809450     0.316088     0.531092    Uiso  ? H
   C244       1.0     0.832927     0.315326     0.559070    Uiso  ? C
   H146       1.0     0.830325     0.297375     0.560987    Uiso  ? H
   C245       1.0     0.848108     0.326856     0.572705    Uiso  ? C
   H147       1.0     0.858295     0.316775     0.584063    Uiso  ? H
   C246       1.0     0.850677     0.350381     0.570611    Uiso  ? C
   C247       1.0     0.836193     0.361793     0.555070    Uiso  ? C
   H148       1.0     0.836125     0.380513     0.553166    Uiso  ? H
   C248       1.0     0.866682     0.362891     0.585144    Uiso  ? C
   C249       1.0     0.758210     0.533018     0.405649    Uiso  ? C
   C250       1.0     0.748249     0.552707     0.418276    Uiso  ? C
   C251       1.0     0.728115     0.563138     0.410189    Uiso  ? C
   H149       1.0     0.717432     0.555238     0.396565    Uiso  ? H
   C252       1.0     0.719824     0.583649     0.419981    Uiso  ? C
   H150       1.0     0.705962     0.593654     0.412522    Uiso  ? H
   C253       1.0     0.731630     0.593338     0.437858    Uiso  ? C
   H151       1.0     0.725442     0.609276     0.444458    Uiso  ? H
   C254       1.0     0.750533     0.583038     0.447180    Uiso  ? C
   C255       1.0     0.759644     0.563519     0.436268    Uiso  ? C
   H152       1.0     0.775672     0.557611     0.443095    Uiso  ? H
   C256       1.0     0.762527     0.593712     0.466432    Uiso  ? C
   C257       1.0     0.800348     0.532162     0.365155    Uiso  ? C
   C258       1.0     0.815335     0.547691     0.352087    Uiso  ? C
   C259       1.0     0.808921     0.556072     0.331124    Uiso  ? C
   H153       1.0     0.794805     0.547650     0.323588    Uiso  ? H
   C260       1.0     0.817696     0.577172     0.322582    Uiso  ? C
   H154       1.0     0.812721     0.582124     0.305851    Uiso  ? H
   C261       1.0     0.833823     0.587809     0.334969    Uiso  ? C
   H155       1.0     0.840639     0.603543     0.327989    Uiso  ? H
   C262       1.0     0.841175     0.579409     0.355737    Uiso  ? C
   C263       1.0     0.831290     0.559092     0.364307    Uiso  ? C
   H156       1.0     0.834908     0.553270     0.380917    Uiso  ? H
   C264       1.0     0.861649     0.590472     0.367163    Uiso  ? C
   C265       1.0     0.867947     0.402889     0.642823    Uiso  ? C
   C266       1.0     0.847417     0.412871     0.654236    Uiso  ? C
   C267       1.0     0.836039     0.402239     0.671353    Uiso  ? C
   H157       1.0     0.841121     0.386368     0.677803    Uiso  ? H
   C268       1.0     0.815723     0.412205     0.680095    Uiso  ? C
   H158       1.0     0.805672     0.403389     0.693102    Uiso  ? H
   C269       1.0     0.808084     0.432833     0.672098    Uiso  ? C
   H159       1.0     0.792569     0.438635     0.680852    Uiso  ? H
   C270       1.0     0.817475     0.442818     0.653398    Uiso  ? C
   C271       1.0     0.837546     0.432826     0.644560    Uiso  ? C
   H160       1.0     0.845010     0.439725     0.629434    Uiso  ? H
   C272       1.0     0.807757     0.464460     0.645379    Uiso  ? C
   C273       1.0     0.122562     0.364689     0.580949    Uiso  ? C
   C274       1.0     0.136576     0.353599     0.562197    Uiso  ? C
   C275       1.0     0.133583     0.330406     0.557118    Uiso  ? C
   H161       1.0     0.120078     0.320987     0.564356    Uiso  ? H
   C276       1.0     0.148441     0.318141     0.543061    Uiso  ? C
   H162       1.0     0.145348     0.300119     0.540570    Uiso  ? H
   C277       1.0     0.165382     0.330884     0.531774    Uiso  ? C
   H163       1.0     0.176282     0.321263     0.520440    Uiso  ? H
   C278       1.0     0.167377     0.354224     0.534622    Uiso  ? C
   C279       1.0     0.152643     0.365414     0.549990    Uiso  ? C
   H164       1.0     0.153665     0.383912     0.552768    Uiso  ? H
   C280       1.0     0.183754     0.367020     0.519714    Uiso  ? C
   C281       1.0     0.234505     0.403153     0.459625    Uiso  ? C
   C282       1.0     0.242454     0.412349     0.438264    Uiso  ? C
   C283       1.0     0.259269     0.400511     0.425171    Uiso  ? C
   H165       1.0     0.265221     0.383550     0.431042    Uiso  ? H
   C284       1.0     0.265999     0.408513     0.403832    Uiso  ? C
   H166       1.0     0.277907     0.399808     0.394655    Uiso  ? H
   C285       1.0     0.257830     0.429066     0.395568    Uiso  ? C
   H167       1.0     0.264677     0.434963     0.379341    Uiso  ? H
   C286       1.0     0.241245     0.441435     0.407465    Uiso  ? C
   C287       1.0     0.233389     0.432015     0.428555    Uiso  ? C
   H168       1.0     0.222589     0.441677     0.439771    Uiso  ? H
   C288       1.0     0.231504     0.461832     0.398098    Uiso  ? C
   O109       1.0     0.869964     0.387332     0.418884    Uiso  ? O
   O110       1.0     0.880140     0.355659     0.401139    Uiso  ? O
   O111       1.0     0.869374     0.417971     0.374713    Uiso  ? O
   O112       1.0     0.859171     0.383560     0.363993    Uiso  ? O
   O113       1.0     0.125037     0.412176     0.386687    Uiso  ? O
   O114       1.0     0.119181     0.390331     0.356841    Uiso  ? O
   O115       1.0     0.125689     0.392417     0.408798    Uiso  ? O
   O116       1.0     0.114120     0.359123     0.397227    Uiso  ? O
   O117       1.0     0.787316     0.405820     0.535008    Uiso  ? O
   O118       1.0     0.756228     0.386575     0.531737    Uiso  ? O
   O119       1.0     0.770732     0.420053     0.482047    Uiso  ? O
   O120       1.0     0.750226     0.389818     0.475442    Uiso  ? O
   O121       1.0     0.812063     0.385772     0.479758    Uiso  ? O
   O122       1.0     0.790011     0.355795     0.482161    Uiso  ? O
   O123       1.0     0.807047     0.384599     0.524918    Uiso  ? O
   O124       1.0     0.789068     0.353934     0.514596    Uiso  ? O
   O125       1.0     0.779407     0.530254     0.405129    Uiso  ? O
   O126       1.0     0.745945     0.521564     0.391423    Uiso  ? O
   O127       1.0     0.799879     0.531965     0.386585    Uiso  ? O
   O128       1.0     0.786882     0.518598     0.354764    Uiso  ? O
   O129       1.0     0.804157     0.479488     0.371451    Uiso  ? O
   O130       1.0     0.769358     0.465516     0.366125    Uiso  ? O
   O131       1.0     0.775196     0.480322     0.419268    Uiso  ? O
   O132       1.0     0.754474     0.472083     0.389455    Uiso  ? O
   O133       1.0     0.881114     0.415439     0.631750    Uiso  ? O
   O134       1.0     0.870161     0.380998     0.642098    Uiso  ? O
   O135       1.0     0.868873     0.383895     0.584322    Uiso  ? O
   O136       1.0     0.878646     0.351783     0.599248    Uiso  ? O
   O137       1.0     0.125313     0.385849     0.584157    Uiso  ? O
   O138       1.0     0.112696     0.352807     0.595632    Uiso  ? O
   O139       1.0     0.133918     0.403712     0.605129    Uiso  ? O
   O140       1.0     0.133232     0.379822     0.634817    Uiso  ? O
   O141       1.0     0.182791     0.388464     0.520117    Uiso  ? O
   O142       1.0     0.201910     0.357825     0.510373    Uiso  ? O
   O143       1.0     0.191241     0.392583     0.469174    Uiso  ? O
   O144       1.0     0.202758     0.357899     0.480117    Uiso  ? O
   O145       1.0     0.215568     0.408457     0.467091    Uiso  ? O
   O146       1.0     0.245745     0.389172     0.471531    Uiso  ? O
   O147       1.0     0.228972     0.416412     0.522834    Uiso  ? O
   O148       1.0     0.243470     0.381955     0.528011    Uiso  ? O
   O149       1.0     0.823237     0.503455     0.634567    Uiso  ? O
   O150       1.0     0.796051     0.520218     0.653491    Uiso  ? O
   O151       1.0     0.786649     0.525472     0.598557    Uiso  ? O
   O152       1.0     0.754811     0.517569     0.615014    Uiso  ? O
   O153       1.0     0.786806     0.469364     0.593443    Uiso  ? O
   O154       1.0     0.765408     0.466315     0.624607    Uiso  ? O
   O155       1.0     0.819075     0.478091     0.632241    Uiso  ? O
   O156       1.0     0.786099     0.466791     0.646165    Uiso  ? O
   O157       1.0     0.889441     0.438237     0.422752    Uiso  ? O
   O158       1.0     0.819188     0.436884     0.501014    Uiso  ? O
   O159       1.0     0.826833     0.496239     0.418249    Uiso  ? O
   O160       1.0     0.883565     0.425608     0.574169    Uiso  ? O
   O161       1.0     0.189786     0.443475     0.501791    Uiso  ? O
   O162       1.0     0.823144     0.499384     0.577513    Uiso  ? O
   Zn25       1.0     0.891486     0.410213     0.401383    Uiso  ? Zn
   Zn26       1.0     0.890228     0.368754     0.368739    Uiso  ? Zn
   Zn27       1.0     0.797478     0.408445     0.501185    Uiso  ? Zn
   Zn28       1.0     0.761247     0.368778     0.501617    Uiso  ? Zn
   Zn29       1.0     0.797267     0.500085     0.398823    Uiso  ? Zn
   Zn30       1.0     0.758692     0.499633     0.366865    Uiso  ? Zn
   Zn31       1.0     0.894896     0.402877     0.599260    Uiso  ? Zn
   Zn32       1.0     0.896902     0.363367     0.628718    Uiso  ? Zn
   Zn33       1.0     0.202006     0.409876     0.500593    Uiso  ? Zn
   Zn34       1.0     0.233714     0.368107     0.497459    Uiso  ? Zn
   Zn35       1.0     0.803349     0.496599     0.605049    Uiso  ? Zn
   Zn36       1.0     0.768503     0.498277     0.642100    Uiso  ? Zn
   C289       1.0     0.139787     0.623779     0.599727    Uiso  ? C
   C290       1.0     0.161119     0.633612     0.590756    Uiso  ? C
   C291       1.0     0.174885     0.646921     0.605252    Uiso  ? C
   H169       1.0     0.167897     0.652708     0.621376    Uiso  ? H
   C292       1.0     0.196511     0.655000     0.598327    Uiso  ? C
   H170       1.0     0.206029     0.666313     0.609695    Uiso  ? H
   C293       1.0     0.204872     0.648985     0.576704    Uiso  ? C
   H171       1.0     0.221500     0.653899     0.571897    Uiso  ? H
   C294       1.0     0.191431     0.636842     0.561469    Uiso  ? C
   C295       1.0     0.170141     0.628416     0.568610    Uiso  ? C
   H172       1.0     0.159305     0.618611     0.557330    Uiso  ? H
   C296       1.0     0.200283     0.628538     0.539577    Uiso  ? C
   C297       1.0     0.133365     0.581471     0.633747    Uiso  ? C
   C298       1.0     0.151148     0.567316     0.645560    Uiso  ? C
   C299       1.0     0.152492     0.568332     0.669608    Uiso  ? C
   H173       1.0     0.140008     0.577108     0.679863    Uiso  ? H
   C300       1.0     0.168681     0.555971     0.681014    Uiso  ? C
   H174       1.0     0.169366     0.556179     0.699304    Uiso  ? H
   C301       1.0     0.183149     0.541490     0.669411    Uiso  ? C
   H175       1.0     0.196121     0.530450     0.678690    Uiso  ? H
   C302       1.0     0.182596     0.540432     0.645205    Uiso  ? C
   C303       1.0     0.167214     0.553875     0.632259    Uiso  ? C
   H176       1.0     0.166210     0.553052     0.613708    Uiso  ? H
   C304       1.0     0.198612     0.524654     0.632388    Uiso  ? C
   C305       1.0     0.875544     0.578555     0.644069    Uiso  ? C
   C306       1.0     0.859553     0.564824     0.658511    Uiso  ? C
   C307       1.0     0.859624     0.566434     0.682590    Uiso  ? C
   H177       1.0     0.868427     0.579014     0.690259    Uiso  ? H
   C308       1.0     0.846713     0.551618     0.694767    Uiso  ? C
   H178       1.0     0.847478     0.553491     0.713511    Uiso  ? H
   C309       1.0     0.833975     0.535326     0.684568    Uiso  ? C
   H179       1.0     0.825943     0.523037     0.694361    Uiso  ? H
   C310       1.0     0.833230     0.532783     0.660146    Uiso  ? C
   C311       1.0     0.847129     0.547322     0.647390    Uiso  ? C
   H180       1.0     0.846051     0.544796     0.628606    Uiso  ? H
   C312       1.0     0.817229     0.518580     0.648352    Uiso  ? C
   C313       1.0     0.865717     0.625718     0.594421    Uiso  ? C
   C314       1.0     0.846024     0.638482     0.583797    Uiso  ? C
   C315       1.0     0.840838     0.660904     0.589840    Uiso  ? C
   H181       1.0     0.851553     0.668152     0.604404    Uiso  ? H
   C316       1.0     0.826383     0.674036     0.577574    Uiso  ? C
   H182       1.0     0.822660     0.691322     0.582508    Uiso  ? H
   C317       1.0     0.814092     0.664009     0.560127    Uiso  ? C
   H183       1.0     0.801716     0.673362     0.551185    Uiso  ? H
   C318       1.0     0.818055     0.641597     0.554022    Uiso  ? C
   C319       1.0     0.835326     0.629478     0.564635    Uiso  ? C
   H184       1.0     0.840141     0.612811     0.559963    Uiso  ? H
   C320       1.0     0.806134     0.630800     0.534552    Uiso  ? C
   C321       1.0     0.238429     0.588897     0.467751    Uiso  ? C
   C322       1.0     0.248410     0.575261     0.448902    Uiso  ? C
   C323       1.0     0.272661     0.573782     0.447634    Uiso  ? C
   H185       1.0     0.283589     0.584267     0.457458    Uiso  ? H
   C324       1.0     0.283321     0.559675     0.432447    Uiso  ? C
   H186       1.0     0.302347     0.556463     0.433512    Uiso  ? H
   C325       1.0     0.270820     0.544994     0.418474    Uiso  ? C
   H187       1.0     0.280956     0.533423     0.407751    Uiso  ? H
   C326       1.0     0.246948     0.543929     0.419778    Uiso  ? C
   C327       1.0     0.235940     0.559551     0.434888    Uiso  ? C
   H188       1.0     0.218563     0.558617     0.436850    Uiso  ? H
   C328       1.0     0.233441     0.528751     0.405261    Uiso  ? C
   C329       1.0     0.237879     0.587809     0.533464    Uiso  ? C
   C330       1.0     0.247986     0.576348     0.552859    Uiso  ? C
   C331       1.0     0.269183     0.583419     0.560428    Uiso  ? C
   H189       1.0     0.277230     0.598218     0.553792    Uiso  ? H
   C332       1.0     0.280381     0.572067     0.578120    Uiso  ? C
   H190       1.0     0.296421     0.577868     0.582982    Uiso  ? H
   C333       1.0     0.270227     0.553921     0.588511    Uiso  ? C
   H191       1.0     0.278344     0.544726     0.602854    Uiso  ? H
   C334       1.0     0.248718     0.545554     0.581342    Uiso  ? C
   C335       1.0     0.237463     0.558185     0.563690    Uiso  ? C
   H192       1.0     0.223274     0.550775     0.555057    Uiso  ? H
   C336       1.0     0.237226     0.527291     0.592720    Uiso  ? C
   C337       1.0     0.193558     0.629371     0.469506    Uiso  ? C
   C338       1.0     0.178535     0.641824     0.452604    Uiso  ? C
   C339       1.0     0.180177     0.665516     0.450603    Uiso  ? C
   H193       1.0     0.192527     0.674287     0.461243    Uiso  ? H
   C340       1.0     0.166654     0.676430     0.434455    Uiso  ? C
   H194       1.0     0.168695     0.695483     0.431994    Uiso  ? H
   C341       1.0     0.151659     0.665265     0.421061    Uiso  ? C
   H195       1.0     0.141811     0.675044     0.410382    Uiso  ? H
   C342       1.0     0.149515     0.640813     0.422659    Uiso  ? C
   C343       1.0     0.164203     0.629664     0.438056    Uiso  ? C
   H196       1.0     0.164575     0.610428     0.438278    Uiso  ? H
   C344       1.0     0.131886     0.629718     0.408127    Uiso  ? C
   C345       1.0     0.243335     0.457841     0.595637    Uiso  ? C
   C346       1.0     0.252992     0.438137     0.585219    Uiso  ? C
   C347       1.0     0.267505     0.423703     0.597592    Uiso  ? C
   H197       1.0     0.272283     0.429891     0.613952    Uiso  ? H
   C348       1.0     0.275433     0.403585     0.588056    Uiso  ? C
   H198       1.0     0.288229     0.393480     0.596385    Uiso  ? H
   C349       1.0     0.268453     0.396795     0.566184    Uiso  ? C
   H199       1.0     0.273257     0.380401     0.560298    Uiso  ? H
   C350       1.0     0.253658     0.411169     0.553844    Uiso  ? C
   C351       1.0     0.248222     0.432815     0.562610    Uiso  ? C
   H200       1.0     0.237581     0.445503     0.552805    Uiso  ? H
   C352       1.0     0.240948     0.402497     0.533899    Uiso  ? C
   C353       1.0     0.199897     0.457642     0.632056    Uiso  ? C
   C354       1.0     0.192388     0.433898     0.633837    Uiso  ? C
   C355       1.0     0.206078     0.419864     0.648428    Uiso  ? C
   H201       1.0     0.221308     0.427424     0.656816    Uiso  ? H
   C356       1.0     0.199711     0.397347     0.652140    Uiso  ? C
   H202       1.0     0.210205     0.387938     0.663652    Uiso  ? H
   C357       1.0     0.177793     0.389432     0.644468    Uiso  ? C
   H203       1.0     0.171635     0.373198     0.649383    Uiso  ? H
   C358       1.0     0.165690     0.402652     0.629136    Uiso  ? C
   C359       1.0     0.172132     0.425015     0.624626    Uiso  ? C
   H204       1.0     0.161917     0.435728     0.614176    Uiso  ? H
   C360       1.0     0.143032     0.396182     0.623200    Uiso  ? C
   C361       1.0     0.135636     0.595564     0.366150    Uiso  ? C
   C362       1.0     0.155417     0.584504     0.354180    Uiso  ? C
   C363       1.0     0.161492     0.590888     0.332121    Uiso  ? C
   H205       1.0     0.151045     0.603055     0.323606    Uiso  ? H
   C364       1.0     0.179117     0.579614     0.320439    Uiso  ? C
   H206       1.0     0.182345     0.584134     0.302381    Uiso  ? H
   C365       1.0     0.189904     0.561269     0.330694    Uiso  ? C
   H207       1.0     0.202986     0.552878     0.322316    Uiso  ? H
   C366       1.0     0.183348     0.553684     0.352644    Uiso  ? C
   C367       1.0     0.166752     0.566544     0.364467    Uiso  ? C
   H208       1.0     0.162659     0.560242     0.381192    Uiso  ? H
   C368       1.0     0.192713     0.532233     0.362287    Uiso  ? C
   C369       1.0     0.875385     0.637940     0.417482    Uiso  ? C
   C370       1.0     0.862294     0.651218     0.435097    Uiso  ? C
   C371       1.0     0.860593     0.674466     0.435604    Uiso  ? C
   H209       1.0     0.870823     0.685633     0.425603    Uiso  ? H
   C372       1.0     0.844798     0.684532     0.450810    Uiso  ? C
   H210       1.0     0.843621     0.702951     0.453480    Uiso  ? H
   C373       1.0     0.831064     0.671223     0.464497    Uiso  ? C
   H211       1.0     0.817168     0.678915     0.473542    Uiso  ? H
   C374       1.0     0.833545     0.647453     0.465460    Uiso  ? C
   C375       1.0     0.850459     0.638293     0.451794    Uiso  ? C
   H212       1.0     0.851713     0.619882     0.452814    Uiso  ? H
   C376       1.0     0.817622     0.632444     0.477619    Uiso  ? C
   C377       1.0     0.767580     0.589300     0.540058    Uiso  ? C
   C378       1.0     0.757059     0.579559     0.560843    Uiso  ? C
   C379       1.0     0.737152     0.588848     0.570679    Uiso  ? C
   H213       1.0     0.728876     0.603135     0.564342    Uiso  ? H
   C380       1.0     0.726350     0.577633     0.588364    Uiso  ? C
   H214       1.0     0.709952     0.583477     0.592855    Uiso  ? H
   C381       1.0     0.734393     0.557477     0.597289    Uiso  ? C
   H215       1.0     0.726277     0.548561     0.612557    Uiso  ? H
   C382       1.0     0.755032     0.548713     0.589761    Uiso  ? C
   C383       1.0     0.765826     0.558854     0.570897    Uiso  ? C
   H216       1.0     0.780048     0.550215     0.564283    Uiso  ? H
   C384       1.0     0.766148     0.529590     0.601552    Uiso  ? C
   O163       1.0     0.133274     0.604042     0.593697    Uiso  ? O
   O164       1.0     0.130364     0.634098     0.615889    Uiso  ? O
   O165       1.0     0.133299     0.581828     0.612188    Uiso  ? O
   O166       1.0     0.120177     0.594020     0.645171    Uiso  ? O
   O167       1.0     0.876188     0.575171     0.622877    Uiso  ? O
   O168       1.0     0.889048     0.593045     0.652694    Uiso  ? O
   O169       1.0     0.877444     0.612276     0.582415    Uiso  ? O
   O170       1.0     0.870958     0.629860     0.614783    Uiso  ? O
   O171       1.0     0.216839     0.589112     0.469288    Uiso  ? O
   O172       1.0     0.250839     0.600179     0.481421    Uiso  ? O
   O173       1.0     0.226869     0.578080     0.518004    Uiso  ? O
   O174       1.0     0.237939     0.609637     0.533389    Uiso  ? O
   O175       1.0     0.186779     0.619850     0.524891    Uiso  ? O
   O176       1.0     0.221738     0.629459     0.535708    Uiso  ? O
   O177       1.0     0.194650     0.607929     0.469982    Uiso  ? O
   O178       1.0     0.207418     0.639821     0.482511    Uiso  ? O
   O179       1.0     0.231752     0.472046     0.584305    Uiso  ? O
   O180       1.0     0.243341     0.460405     0.617550    Uiso  ? O
   O181       1.0     0.187546     0.472388     0.620768    Uiso  ? O
   O182       1.0     0.221069     0.461695     0.635205    Uiso  ? O
   O183       1.0     0.197113     0.522697     0.610463    Uiso  ? O
   O184       1.0     0.210298     0.510672     0.643981    Uiso  ? O
   O185       1.0     0.215837     0.525502     0.592693    Uiso  ? O
   O186       1.0     0.249299     0.513874     0.605737    Uiso  ? O
   O187       1.0     0.129003     0.586434     0.383599    Uiso  ? O
   O188       1.0     0.125739     0.612430     0.357879    Uiso  ? O
   O189       1.0     0.130013     0.607736     0.407938    Uiso  ? O
   O190       1.0     0.117194     0.641878     0.397619    Uiso  ? O
   O191       1.0     0.877621     0.616874     0.420326    Uiso  ? O
   O192       1.0     0.885856     0.648089     0.400956    Uiso  ? O
   O193       1.0     0.874833     0.578219     0.378451    Uiso  ? O
   O194       1.0     0.865588     0.611905     0.364109    Uiso  ? O
   O195       1.0     0.823273     0.612638     0.483984    Uiso  ? O
   O196       1.0     0.799963     0.640724     0.486125    Uiso  ? O
   O197       1.0     0.805870     0.609251     0.532506    Uiso  ? O
   O198       1.0     0.797451     0.642318     0.518649    Uiso  ? O
   O199       1.0     0.789070     0.587734     0.537811    Uiso  ? O
   O200       1.0     0.756834     0.603998     0.527955    Uiso  ? O
   O201       1.0     0.777123     0.581620     0.477886    Uiso  ? O
   O202       1.0     0.757409     0.613991     0.471878    Uiso  ? O
   O203       1.0     0.180603     0.480307     0.373724    Uiso  ? O
   O204       1.0     0.212807     0.467871     0.358119    Uiso  ? O
   O205       1.0     0.220685     0.476080     0.411767    Uiso  ? O
   O206       1.0     0.233377     0.466420     0.376404    Uiso  ? O
   O207       1.0     0.211725     0.530687     0.404662    Uiso  ? O
   O208       1.0     0.242185     0.516535     0.389991    Uiso  ? O
   O209       1.0     0.191544     0.529660     0.383980    Uiso  ? O
   O210       1.0     0.204472     0.519215     0.350173    Uiso  ? O
   O211       1.0     0.888056     0.562033     0.575808    Uiso  ? O
   O212       1.0     0.172063     0.571572     0.507334    Uiso  ? O
   O213       1.0     0.189027     0.486973     0.564014    Uiso  ? O
   O214       1.0     0.888754     0.566372     0.428036    Uiso  ? O
   O215       1.0     0.821632     0.561110     0.500293    Uiso  ? O
   O216       1.0     0.171267     0.494818     0.423483    Uiso  ? O
   Zn37       1.0     0.896827     0.588572     0.597963    Uiso  ? Zn
   Zn38       1.0     0.102919     0.625010     0.636369    Uiso  ? Zn
   Zn39       1.0     0.199975     0.595166     0.501570    Uiso  ? Zn
   Zn40       1.0     0.236234     0.627614     0.502154    Uiso  ? Zn
   Zn41       1.0     0.203067     0.492866     0.594868    Uiso  ? Zn
   Zn42       1.0     0.238401     0.493693     0.632923    Uiso  ? Zn
   Zn43       1.0     0.894943     0.590932     0.402442    Uiso  ? Zn
   Zn44       1.0     0.895041     0.631926     0.368767    Uiso  ? Zn
   Zn45       1.0     0.802313     0.589923     0.501901    Uiso  ? Zn
   Zn46       1.0     0.768308     0.628563     0.501209    Uiso  ? Zn
   Zn47       1.0     0.195429     0.498196     0.399265    Uiso  ? Zn
   Zn48       1.0     0.231064     0.499061     0.360978    Uiso  ? Zn
   H217       1.0     0.158979     0.572881     0.496772    Uiso  ? H
   H218       1.0     0.172451     0.557728     0.517181    Uiso  ? H
   H219       1.0     0.828697     0.439608     0.488235    Uiso  ? H
   H220       1.0     0.817028     0.449561     0.511422    Uiso  ? H
   H221       1.0     0.814792     0.497473     0.563995    Uiso  ? H
   H222       1.0     0.837996     0.505761     0.577833    Uiso  ? H
   H223       1.0     0.869426     0.432997     0.575085    Uiso  ? H
   H224       1.0     0.891327     0.425841     0.559946    Uiso  ? H
   H225       1.0     0.168727     0.479503     0.429456    Uiso  ? H
   H226       1.0     0.164871     0.509056     0.429766    Uiso  ? H
   H227       1.0     0.875817     0.444800     0.429190    Uiso  ? H
   H228       1.0     0.106375     0.444878     0.427881    Uiso  ? H
   H229       1.0     0.180053     0.449489     0.489066    Uiso  ? H
   H230       1.0     0.189580     0.451741     0.515434    Uiso  ? H
   H231       1.0     0.875495     0.557768     0.429920    Uiso  ? H
   H232       1.0     0.104235     0.566831     0.439283    Uiso  ? H
   H233       1.0     0.827316     0.488514     0.432655    Uiso  ? H
   H234       1.0     0.839496     0.504774     0.413968    Uiso  ? H
   H235       1.0     0.837700     0.562040     0.500554    Uiso  ? H
   H236       1.0     0.813021     0.546839     0.496621    Uiso  ? H
   H237       1.0     0.197159     0.487354     0.549790    Uiso  ? H
   H238       1.0     0.174111     0.492855     0.565233    Uiso  ? H
   H239       1.0     0.880213     0.548483     0.581701    Uiso  ? H
   H240       1.0     0.891330     0.563546     0.560619    Uiso  ? H
   C385       1.0     0.635059     0.867056     0.403737    Uiso  ? C
   C386       1.0     0.646085     0.847239     0.415747    Uiso  ? C
   C387       1.0     0.667718     0.840117     0.408290    Uiso  ? C
   H241       1.0     0.675654     0.847527     0.393678    Uiso  ? H
   C388       1.0     0.678515     0.821501     0.418312    Uiso  ? C
   H242       1.0     0.693061     0.815589     0.411122    Uiso  ? H
   C389       1.0     0.668360     0.810063     0.436651    Uiso  ? C
   H243       1.0     0.676078     0.795386     0.443617    Uiso  ? H
   C390       1.0     0.645966     0.815970     0.444281    Uiso  ? C
   C391       1.0     0.635142     0.835050     0.433632    Uiso  ? C
   H244       1.0     0.617426     0.839460     0.438064    Uiso  ? H
   C392       1.0     0.635502     0.804352     0.463708    Uiso  ? C
   C393       1.0     0.592542     0.862138     0.368783    Uiso  ? C
   C394       1.0     0.577055     0.843672     0.358432    Uiso  ? C
   C395       1.0     0.579566     0.839102     0.334422    Uiso  ? C
   H245       1.0     0.590179     0.848572     0.324238    Uiso  ? H
   C396       1.0     0.565447     0.822960     0.323393    Uiso  ? C
   H246       1.0     0.567039     0.820414     0.305045    Uiso  ? H
   C397       1.0     0.549556     0.811611     0.335854    Uiso  ? C
   H247       1.0     0.539008     0.799782     0.327202    Uiso  ? H
   C398       1.0     0.545505     0.816270     0.358666    Uiso  ? C
   C399       1.0     0.561130     0.830481     0.370061    Uiso  ? C
   H248       1.0     0.559759     0.832469     0.387872    Uiso  ? H
   C400       1.0     0.527630     0.803969     0.371283    Uiso  ? C
   C401       1.0     0.602853     0.141162     0.366387    Uiso  ? C
   C402       1.0     0.594287     0.163714     0.356905    Uiso  ? C
   C403       1.0     0.608095     0.176480     0.343320    Uiso  ? C
   H249       1.0     0.624429     0.168977     0.337740    Uiso  ? H
   C404       1.0     0.598983     0.196093     0.332700    Uiso  ? C
   H250       1.0     0.609930     0.206575     0.321502    Uiso  ? H
   C405       1.0     0.577213     0.203778     0.338952    Uiso  ? C
   H251       1.0     0.569815     0.219714     0.333564    Uiso  ? H
   C406       1.0     0.563302     0.191044     0.353225    Uiso  ? C
   C407       1.0     0.572082     0.170841     0.361783    Uiso  ? C
   H252       1.0     0.562701     0.161837     0.374694    Uiso  ? H
   C408       1.0     0.541158     0.200228     0.361744    Uiso  ? C
   C409       1.0     0.634079     0.132530     0.410096    Uiso  ? C
   C410       1.0     0.644375     0.152783     0.421748    Uiso  ? C
   C411       1.0     0.663191     0.163246     0.411257    Uiso  ? C
   H253       1.0     0.670352     0.157851     0.395691    Uiso  ? H
   C412       1.0     0.672556     0.183876     0.420456    Uiso  ? C
   H254       1.0     0.684799     0.193284     0.411457    Uiso  ? H
   C413       1.0     0.663516     0.193339     0.439346    Uiso  ? C
   H255       1.0     0.670351     0.209809     0.445403    Uiso  ? H
   C414       1.0     0.643970     0.183283     0.449874    Uiso  ? C
   C415       1.0     0.636371     0.161298     0.442066    Uiso  ? C
   H256       1.0     0.622784     0.152744     0.451306    Uiso  ? H
   C416       1.0     0.632450     0.195192     0.468514    Uiso  ? C
   C417       1.0     0.597032     0.762664     0.528410    Uiso  ? C
   C418       1.0     0.582996     0.751225     0.546027    Uiso  ? C
   C419       1.0     0.588857     0.729558     0.554398    Uiso  ? C
   H257       1.0     0.604265     0.720841     0.546606    Uiso  ? H
   C420       1.0     0.577853     0.720108     0.572732    Uiso  ? C
   H258       1.0     0.583434     0.703382     0.579632    Uiso  ? H
   C421       1.0     0.560201     0.732099     0.583282    Uiso  ? C
   H259       1.0     0.552810     0.725961     0.599361    Uiso  ? H
   C422       1.0     0.553297     0.752937     0.575246    Uiso  ? C
   C423       1.0     0.564829     0.763279     0.556694    Uiso  ? C
   H260       1.0     0.562227     0.780766     0.552084    Uiso  ? H
   C424       1.0     0.536153     0.767232     0.587306    Uiso  ? C
   C425       1.0     0.600345     0.762427     0.460319    Uiso  ? C
   C426       1.0     0.591222     0.755866     0.437109    Uiso  ? C
   C427       1.0     0.603344     0.741302     0.422911    Uiso  ? C
   H261       1.0     0.619632     0.733997     0.427003    Uiso  ? H
   C428       1.0     0.593979     0.734579     0.401984    Uiso  ? C
   H262       1.0     0.602708     0.723247     0.391383    Uiso  ? H
   C429       1.0     0.573521     0.743408     0.395364    Uiso  ? C
   H263       1.0     0.566927     0.739617     0.378204    Uiso  ? H
   C430       1.0     0.559454     0.756263     0.410199    Uiso  ? C
   C431       1.0     0.569434     0.763942     0.430311    Uiso  ? C
   H264       1.0     0.560016     0.774580     0.443007    Uiso  ? H
   C432       1.0     0.537130     0.763697     0.404726    Uiso  ? C
   C433       1.0     0.637972     0.804182     0.529526    Uiso  ? C
   C434       1.0     0.647818     0.813993     0.549886    Uiso  ? C
   C435       1.0     0.669127     0.807343     0.558036    Uiso  ? C
   H265       1.0     0.680005     0.794308     0.551654    Uiso  ? H
   C436       1.0     0.677975     0.817295     0.577447    Uiso  ? C
   H266       1.0     0.695471     0.813478     0.581528    Uiso  ? H
   C437       1.0     0.666423     0.834355     0.588362    Uiso  ? C
   H267       1.0     0.674827     0.843209     0.602378    Uiso  ? H
   C438       1.0     0.645201     0.840972     0.581200    Uiso  ? C
   C439       1.0     0.636390     0.830820     0.561598    Uiso  ? C
   H268       1.0     0.620646     0.837360     0.553624    Uiso  ? H
   C440       1.0     0.634636     0.860693     0.591582    Uiso  ? C
   C441       1.0     0.465162     0.754743     0.410440    Uiso  ? C
   C442       1.0     0.443012     0.746018     0.419031    Uiso  ? C
   C443       1.0     0.429864     0.731457     0.406153    Uiso  ? C
   H269       1.0     0.435413     0.724616     0.390704    Uiso  ? H
   C444       1.0     0.407407     0.725031     0.412733    Uiso  ? C
   H270       1.0     0.396747     0.713741     0.403052    Uiso  ? H
   C445       1.0     0.397736     0.734500     0.432364    Uiso  ? C
   H271       1.0     0.380658     0.730543     0.437194    Uiso  ? H
   C446       1.0     0.412034     0.747680     0.446480    Uiso  ? C
   C447       1.0     0.434228     0.754052     0.438855    Uiso  ? C
   H272       1.0     0.443447     0.766927     0.448120    Uiso  ? H
   C448       1.0     0.401244     0.758776     0.466771    Uiso  ? C
   C449       1.0     0.476039     0.807175     0.366079    Uiso  ? C
   C450       1.0     0.462176     0.823932     0.352533    Uiso  ? C
   C451       1.0     0.461814     0.821245     0.328363    Uiso  ? C
   H273       1.0     0.471924     0.808213     0.319626    Uiso  ? H
   C452       1.0     0.450210     0.836410     0.315306    Uiso  ? C
   H274       1.0     0.450718     0.834717     0.297302    Uiso  ? H
   C453       1.0     0.435572     0.853036     0.325714    Uiso  ? C
   H275       1.0     0.426810     0.865460     0.316191    Uiso  ? H
   C454       1.0     0.435129     0.854581     0.349179    Uiso  ? C
   C455       1.0     0.447737     0.839484     0.362443    Uiso  ? C
   H276       1.0     0.449560     0.842733     0.379390    Uiso  ? H
   C456       1.0     0.419606     0.871151     0.360206    Uiso  ? C
   C457       1.0     0.588711     0.870600     0.636823    Uiso  ? C
   C458       1.0     0.570941     0.856130     0.648091    Uiso  ? C
   C459       1.0     0.572087     0.853757     0.671578    Uiso  ? C
   H277       1.0     0.585222     0.862118     0.681218    Uiso  ? H
   C460       1.0     0.556979     0.839093     0.682326    Uiso  ? C
   H278       1.0     0.559405     0.835237     0.700295    Uiso  ? H
   C461       1.0     0.539201     0.828623     0.670681    Uiso  ? C
   H279       1.0     0.529809     0.815902     0.679044    Uiso  ? H
   C462       1.0     0.538430     0.829337     0.647151    Uiso  ? C
   C463       1.0     0.554015     0.843537     0.635625    Uiso  ? C
   H280       1.0     0.555805     0.843178     0.616798    Uiso  ? H
   C464       1.0     0.524742     0.812968     0.634951    Uiso  ? C
   C465       1.0     0.635584     0.139574     0.597220    Uiso  ? C
   C466       1.0     0.646320     0.159328     0.585799    Uiso  ? C
   C467       1.0     0.667953     0.166885     0.592585    Uiso  ? C
   H281       1.0     0.677488     0.158469     0.606007    Uiso  ? H
   C468       1.0     0.677884     0.184889     0.580543    Uiso  ? C
   H282       1.0     0.695634     0.190350     0.584838    Uiso  ? H
   C469       1.0     0.664497     0.197442     0.563733    Uiso  ? C
   H283       1.0     0.672941     0.211496     0.556494    Uiso  ? H
   C470       1.0     0.643774     0.189464     0.556055    Uiso  ? C
   C471       1.0     0.634023     0.170767     0.568176    Uiso  ? C
   H284       1.0     0.618001     0.164479     0.562473    Uiso  ? H
   C472       1.0     0.632873     0.199096     0.535639    Uiso  ? C
   C473       1.0     0.594717     0.237977     0.468193    Uiso  ? C
   C474       1.0     0.583218     0.246754     0.447507    Uiso  ? C
   C475       1.0     0.591052     0.268019     0.439637    Uiso  ? C
   H285       1.0     0.606324     0.275069     0.445069    Uiso  ? H
   C476       1.0     0.579779     0.277646     0.421151    Uiso  ? C
   H286       1.0     0.586073     0.291945     0.412563    Uiso  ? H
   C477       1.0     0.561687     0.267014     0.411550    Uiso  ? C
   H287       1.0     0.553545     0.273993     0.396903    Uiso  ? H
   C478       1.0     0.553699     0.246468     0.419949    Uiso  ? C
   C479       1.0     0.564127     0.236284     0.438342    Uiso  ? C
   H288       1.0     0.557460     0.221185     0.446774    Uiso  ? H
   C480       1.0     0.536346     0.233336     0.407826    Uiso  ? C
   O217       1.0     0.613439     0.871006     0.407010    Uiso  ? O
   O218       1.0     0.645866     0.878759     0.389648    Uiso  ? O
   O219       1.0     0.591733     0.866794     0.390142    Uiso  ? O
   O220       1.0     0.604142     0.875187     0.356667    Uiso  ? O
   O221       1.0     0.589762     0.128439     0.377520    Uiso  ? O
   O222       1.0     0.623469     0.135466     0.365278    Uiso  ? O
   O223       1.0     0.621001     0.120238     0.420450    Uiso  ? O
   O224       1.0     0.638352     0.128616     0.389333    Uiso  ? O
   O225       1.0     0.596023     0.784455     0.527633    Uiso  ? O
   O226       1.0     0.610040     0.751027     0.516091    Uiso  ? O
   O227       1.0     0.587665     0.771851     0.474375    Uiso  ? O
   O228       1.0     0.621560     0.761987     0.463862    Uiso  ? O
   O229       1.0     0.621655     0.815909     0.476422    Uiso  ? O
   O230       1.0     0.639284     0.783263     0.467375    Uiso  ? O
   O231       1.0     0.616735     0.804685     0.526826    Uiso  ? O
   O232       1.0     0.649037     0.788943     0.520679    Uiso  ? O
   O233       1.0     0.477546     0.767118     0.422828    Uiso  ? O
   O234       1.0     0.470588     0.751420     0.389531    Uiso  ? O
   O235       1.0     0.477888     0.809711     0.387142    Uiso  ? O
   O236       1.0     0.484576     0.790783     0.355636    Uiso  ? O
   O237       1.0     0.525439     0.805425     0.392928    Uiso  ? O
   O238       1.0     0.516831     0.788895     0.360584    Uiso  ? O
   O239       1.0     0.530198     0.783026     0.411821    Uiso  ? O
   O240       1.0     0.526761     0.752823     0.389549    Uiso  ? O
   O241       1.0     0.587357     0.875086     0.616444    Uiso  ? O
   O242       1.0     0.604722     0.879377     0.648543    Uiso  ? O
   O243       1.0     0.625216     0.875238     0.579192    Uiso  ? O
   O244       1.0     0.638028     0.864009     0.612891    Uiso  ? O
   O245       1.0     0.614925     0.134744     0.592964    Uiso  ? O
   O246       1.0     0.646295     0.127576     0.612102    Uiso  ? O
   O247       1.0     0.597253     0.131494     0.612386    Uiso  ? O
   O248       1.0     0.605921     0.114859     0.645711    Uiso  ? O
   O249       1.0     0.611604     0.195643     0.532702    Uiso  ? O
   O250       1.0     0.644480     0.211500     0.521905    Uiso  ? O
   O251       1.0     0.621485     0.183392     0.482750    Uiso  ? O
   O252       1.0     0.633632     0.216913     0.470106    Uiso  ? O
   O253       1.0     0.582391     0.227234     0.482266    Uiso  ? O
   O254       1.0     0.616832     0.236096     0.468944    Uiso  ? O
   O255       1.0     0.592955     0.217791     0.531309    Uiso  ? O
   O256       1.0     0.607004     0.251310     0.521767    Uiso  ? O
   O257       1.0     0.484630     0.822472     0.613500    Uiso  ? O
   O258       1.0     0.476164     0.793113     0.634903    Uiso  ? O
   O259       1.0     0.473605     0.778943     0.584609    Uiso  ? O
   O260       1.0     0.466814     0.767184     0.620255    Uiso  ? O
   O261       1.0     0.529099     0.785706     0.576770    Uiso  ? O
   O262       1.0     0.525510     0.759605     0.604062    Uiso  ? O
   O263       1.0     0.515690     0.818577     0.615950    Uiso  ? O
   O264       1.0     0.520250     0.793283     0.642650    Uiso  ? O
   O265       1.0     0.566710     0.110217     0.419434    Uiso  ? O
   O266       1.0     0.572102     0.822620     0.495069    Uiso  ? O
   O267       1.0     0.487766     0.814746     0.435938    Uiso  ? O
   O268       1.0     0.574221     0.891368     0.572299    Uiso  ? O
   O269       1.0     0.568936     0.179055     0.499775    Uiso  ? O
   O270       1.0     0.498104     0.824311     0.559897    Uiso  ? O
   Zn49       1.0     0.597699     0.105428     0.400597    Uiso  ? Zn
   Zn50       1.0     0.630901     0.897982     0.365206    Uiso  ? Zn
   Zn51       1.0     0.599115     0.799358     0.496459    Uiso  ? Zn
   Zn52       1.0     0.636261     0.764057     0.498355    Uiso  ? Zn
   Zn53       1.0     0.495632     0.794458     0.410325    Uiso  ? Zn
   Zn54       1.0     0.497974     0.760584     0.369775    Uiso  ? Zn
   Zn55       1.0     0.601584     0.897246     0.592160    Uiso  ? Zn
   Zn56       1.0     0.635074     0.893814     0.633261    Uiso  ? Zn
   Zn57       1.0     0.597636     0.199224     0.500655    Uiso  ? Zn
   Zn58       1.0     0.630779     0.236816     0.500744    Uiso  ? Zn
   Zn59       1.0     0.500347     0.802337     0.587408    Uiso  ? Zn
   Zn60       1.0     0.501996     0.767276     0.629224    Uiso  ? Zn
   C481       1.0     0.365884     0.137525     0.584951    Uiso  ? C
   C482       1.0     0.357968     0.160044     0.575414    Uiso  ? C
   C483       1.0     0.342180     0.171960     0.586901    Uiso  ? C
   H289       1.0     0.334332     0.166140     0.601789    Uiso  ? H
   C484       1.0     0.334701     0.194005     0.581329    Uiso  ? C
   H290       1.0     0.321278     0.200931     0.591775    Uiso  ? H
   C485       1.0     0.342925     0.203094     0.560971    Uiso  ? C
   H291       1.0     0.336706     0.219443     0.554987    Uiso  ? H
   C486       1.0     0.359453     0.191152     0.548898    Uiso  ? C
   C487       1.0     0.366991     0.168574     0.555913    Uiso  ? C
   H292       1.0     0.379106     0.159397     0.545214    Uiso  ? H
   C488       1.0     0.368098     0.200857     0.527657    Uiso  ? C
   C489       1.0     0.404069     0.142986     0.624369    Uiso  ? C
   C490       1.0     0.413074     0.163287     0.633602    Uiso  ? C
   C491       1.0     0.399253     0.177354     0.647407    Uiso  ? C
   H293       1.0     0.381284     0.173154     0.649814    Uiso  ? H
   C492       1.0     0.405982     0.199097     0.653117    Uiso  ? C
   H294       1.0     0.394015     0.210814     0.663031    Uiso  ? H
   C493       1.0     0.427795     0.204968     0.649339    Uiso  ? C
   H295       1.0     0.433315     0.222057     0.655359    Uiso  ? H
   C494       1.0     0.442410     0.191515     0.636458    Uiso  ? C
   C495       1.0     0.435865     0.169994     0.629992    Uiso  ? C
   H296       1.0     0.448794     0.159132     0.622339    Uiso  ? H
   C496       1.0     0.465321     0.200251     0.630243    Uiso  ? C
   C497       1.0     0.408907     0.869484     0.628526    Uiso  ? C
   C498       1.0     0.422173     0.851295     0.641333    Uiso  ? C
   C499       1.0     0.420172     0.849247     0.664317    Uiso  ? C
   H297       1.0     0.407936     0.859313     0.673342    Uiso  ? H
   C500       1.0     0.434001     0.834133     0.675321    Uiso  ? C
   H298       1.0     0.431313     0.830476     0.692445    Uiso  ? H
   C501       1.0     0.451897     0.823634     0.664309    Uiso  ? C
   H299       1.0     0.461790     0.812022     0.673479    Uiso  ? H
   C502       1.0     0.454847     0.826126     0.641758    Uiso  ? C
   C503       1.0     0.440321     0.839987     0.629529    Uiso  ? C
   H300       1.0     0.442415     0.843396     0.611472    Uiso  ? H
   C504       1.0     0.472584     0.813302     0.628799    Uiso  ? C
   C505       1.0     0.363736     0.866995     0.590106    Uiso  ? C
   C506       1.0     0.351583     0.848324     0.577977    Uiso  ? C
   C507       1.0     0.329265     0.843171     0.582605    Uiso  ? C
   H301       1.0     0.319951     0.849421     0.596536    Uiso  ? H
   C508       1.0     0.317518     0.825782     0.571650    Uiso  ? C
   H302       1.0     0.299672     0.821363     0.574604    Uiso  ? H
   C509       1.0     0.328649     0.813959     0.553951    Uiso  ? C
   H303       1.0     0.318468     0.801609     0.545949    Uiso  ? H
   C510       1.0     0.350697     0.819720     0.547613    Uiso  ? C
   C511       1.0     0.362322     0.837466     0.559577    Uiso  ? C
   H304       1.0     0.380941     0.840825     0.555652    Uiso  ? H
   C512       1.0     0.362790     0.807163     0.529595    Uiso  ? C
   C513       1.0     0.413564     0.239696     0.464658    Uiso  ? C
   C514       1.0     0.428213     0.251027     0.447768    Uiso  ? C
   C515       1.0     0.429567     0.274914     0.445592    Uiso  ? C
   H305       1.0     0.418437     0.285361     0.455618    Uiso  ? H
   C516       1.0     0.444670     0.285687     0.431067    Uiso  ? C
   H306       1.0     0.444915     0.304075     0.429669    Uiso  ? H
   C517       1.0     0.460050     0.271994     0.418069    Uiso  ? C
   H307       1.0     0.472083     0.278441     0.406255    Uiso  ? H
   C518       1.0     0.460822     0.249121     0.420419    Uiso  ? C
   C519       1.0     0.444097     0.238221     0.434287    Uiso  ? C
   H308       1.0     0.445051     0.219653     0.436872    Uiso  ? H
   C520       1.0     0.476257     0.234702     0.405713    Uiso  ? C
   C521       1.0     0.411139     0.238360     0.527669    Uiso  ? C
   C522       1.0     0.422804     0.248103     0.547803    Uiso  ? C
   C523       1.0     0.413036     0.267026     0.558628    Uiso  ? C
   H309       1.0     0.397572     0.276133     0.552778    Uiso  ? H
   C524       1.0     0.421880     0.275491     0.579625    Uiso  ? C
   H310       1.0     0.415921     0.290407     0.586949    Uiso  ? H
   C525       1.0     0.440588     0.265411     0.589151    Uiso  ? C
   H311       1.0     0.446855     0.272078     0.605203    Uiso  ? H
   C526       1.0     0.451655     0.247980     0.578032    Uiso  ? C
   C527       1.0     0.442169     0.238558     0.557926    Uiso  ? C
   H312       1.0     0.448987     0.221980     0.552192    Uiso  ? H
   C528       1.0     0.470847     0.236989     0.589573    Uiso  ? C
   C529       1.0     0.371665     0.198766     0.458904    Uiso  ? C
   C530       1.0     0.360137     0.185687     0.440119    Uiso  ? C
   C531       1.0     0.336921     0.190440     0.434827    Uiso  ? C
   H313       1.0     0.328248     0.204748     0.442542    Uiso  ? H
   C532       1.0     0.326450     0.179866     0.416458    Uiso  ? C
   H314       1.0     0.308863     0.182922     0.412371    Uiso  ? H
   C533       1.0     0.337190     0.162351     0.405109    Uiso  ? C
   H315       1.0     0.327022     0.152183     0.393572    Uiso  ? H
   C534       1.0     0.360227     0.157354     0.410069    Uiso  ? C
   C535       1.0     0.371085     0.169264     0.427526    Uiso  ? C
   H316       1.0     0.387479     0.164963     0.434255    Uiso  ? H
   C536       1.0     0.371669     0.136677     0.400011    Uiso  ? C
   C537       1.0     0.535556     0.238024     0.595112    Uiso  ? C
   C538       1.0     0.556258     0.248570     0.585698    Uiso  ? C
   C539       1.0     0.564922     0.268970     0.594054    Uiso  ? C
   H317       1.0     0.557494     0.275652     0.609720    Uiso  ? H
   C540       1.0     0.582816     0.279416     0.583164    Uiso  ? C
   H318       1.0     0.588794     0.295306     0.591750    Uiso  ? H
   C541       1.0     0.593563     0.270181     0.564169    Uiso  ? C
   H319       1.0     0.607417     0.279329     0.556079    Uiso  ? H
   C542       1.0     0.585852     0.249131     0.555901    Uiso  ? C
   C543       1.0     0.567673     0.237630     0.567709    Uiso  ? C
   H320       1.0     0.560375     0.222082     0.561339    Uiso  ? H
   C544       1.0     0.595609     0.238877     0.535367    Uiso  ? C
   C545       1.0     0.536743     0.194311     0.633297    Uiso  ? C
   C546       1.0     0.552239     0.179014     0.646168    Uiso  ? C
   C547       1.0     0.555381     0.182354     0.669003    Uiso  ? C
   H321       1.0     0.548528     0.196692     0.677116    Uiso  ? H
   C548       1.0     0.568032     0.167090     0.681207    Uiso  ? C
   H322       1.0     0.571956     0.170456     0.698901    Uiso  ? H
   C549       1.0     0.580924     0.150372     0.670520    Uiso  ? C
   H323       1.0     0.593255     0.139295     0.680969    Uiso  ? H
   C550       1.0     0.580113     0.148284     0.646899    Uiso  ? C
   C551       1.0     0.564379     0.161905     0.635325    Uiso  ? C
   H324       1.0     0.560397     0.158755     0.617863    Uiso  ? H
   C552       1.0     0.595078     0.130743     0.634006    Uiso  ? C
   C553       1.0     0.412838     0.128633     0.363034    Uiso  ? C
   C554       1.0     0.426329     0.146136     0.351403    Uiso  ? C
   C555       1.0     0.425625     0.148292     0.327329    Uiso  ? C
   H325       1.0     0.415301     0.137819     0.316080    Uiso  ? H
   C556       1.0     0.437434     0.166543     0.316857    Uiso  ? C
   H326       1.0     0.437365     0.168728     0.297610    Uiso  ? H
   C557       1.0     0.450767     0.180350     0.330207    Uiso  ? C
   H327       1.0     0.459328     0.193630     0.322230    Uiso  ? H
   C558       1.0     0.452953     0.177076     0.353134    Uiso  ? C
   C559       1.0     0.439845     0.161176     0.363602    Uiso  ? C
   H328       1.0     0.439388     0.160517     0.382644    Uiso  ? H
   C560       1.0     0.469963     0.191274     0.364801    Uiso  ? C
   C561       1.0     0.368114     0.860098     0.399959    Uiso  ? C
   C562       1.0     0.357774     0.840629     0.411977    Uiso  ? C
   C563       1.0     0.338461     0.830072     0.402558    Uiso  ? C
   H329       1.0     0.330962     0.834075     0.386392    Uiso  ? H
   C564       1.0     0.330289     0.810390     0.413096    Uiso  ? C
   H330       1.0     0.314212     0.802300     0.407736    Uiso  ? H
   C565       1.0     0.340503     0.802469     0.431941    Uiso  ? C
   H331       1.0     0.335136     0.787561     0.439679    Uiso  ? H
   C566       1.0     0.358823     0.813431     0.441895    Uiso  ? C
   C567       1.0     0.367299     0.833388     0.431350    Uiso  ? C
   H332       1.0     0.382065     0.842677     0.437538    Uiso  ? H
   C568       1.0     0.368703     0.805251     0.463784    Uiso  ? C
   C569       1.0     0.402039     0.767887     0.538331    Uiso  ? C
   C570       1.0     0.409287     0.759167     0.560802    Uiso  ? C
   C571       1.0     0.396453     0.744164     0.574733    Uiso  ? C
   H333       1.0     0.379267     0.740470     0.569961    Uiso  ? H
   C572       1.0     0.404028     0.739458     0.596812    Uiso  ? C
   H334       1.0     0.393627     0.728647     0.606473    Uiso  ? H
   C573       1.0     0.424319     0.748139     0.605318    Uiso  ? C
   H335       1.0     0.430057     0.743044     0.621592    Uiso  ? H
   C574       1.0     0.438756     0.759590     0.590743    Uiso  ? C
   C575       1.0     0.430436     0.766984     0.568896    Uiso  ? C
   H336       1.0     0.439943     0.779271     0.559773    Uiso  ? H
   C576       1.0     0.460720     0.768880     0.598747    Uiso  ? C
   O271       1.0     0.380187     0.125513     0.573915    Uiso  ? O
   O272       1.0     0.365260     0.134933     0.606856    Uiso  ? O
   O273       1.0     0.416967     0.127458     0.616932    Uiso  ? O
   O274       1.0     0.382483     0.139286     0.626778    Uiso  ? O
   O275       1.0     0.407304     0.869213     0.607113    Uiso  ? O
   O276       1.0     0.397421     0.884028     0.639747    Uiso  ? O
   O277       1.0     0.385606     0.869728     0.587516    Uiso  ? O
   O278       1.0     0.353015     0.880547     0.602303    Uiso  ? O
   O279       1.0     0.412098     0.217446     0.463468    Uiso  ? O
   O280       1.0     0.398701     0.250607     0.475997    Uiso  ? O
   O281       1.0     0.422070     0.225260     0.515241    Uiso  ? O
   O282       1.0     0.389255     0.241372     0.525125    Uiso  ? O
   O283       1.0     0.379013     0.188449     0.513591    Uiso  ? O
   O284       1.0     0.368755     0.221681     0.524783    Uiso  ? O
   O285       1.0     0.392801     0.197404     0.461292    Uiso  ? O
   O286       1.0     0.359428     0.212586     0.470891    Uiso  ? O
   O287       1.0     0.532849     0.217138     0.593384    Uiso  ? O
   O288       1.0     0.522463     0.249824     0.607176    Uiso  ? O
   O289       1.0     0.534508     0.192439     0.612049    Uiso  ? O
   O290       1.0     0.522776     0.208220     0.643686    Uiso  ? O
   O291       1.0     0.479222     0.187532     0.620152    Uiso  ? O
   O292       1.0     0.469217     0.222298     0.632552    Uiso  ? O
   O293       1.0     0.485062     0.223850     0.579341    Uiso  ? O
   O294       1.0     0.471465     0.239031     0.610792    Uiso  ? O
   O295       1.0     0.411474     0.128452     0.384738    Uiso  ? O
   O296       1.0     0.403033     0.113257     0.352033    Uiso  ? O
   O297       1.0     0.391134     0.132080     0.405242    Uiso  ? O
   O298       1.0     0.362079     0.123893     0.385918    Uiso  ? O
   O299       1.0     0.378511     0.874593     0.411494    Uiso  ? O
   O300       1.0     0.366935     0.862770     0.378989    Uiso  ? O
   O301       1.0     0.423026     0.874982     0.381544    Uiso  ? O
   O302       1.0     0.403402     0.880738     0.349282    Uiso  ? O
   O303       1.0     0.384298     0.816442     0.473989    Uiso  ? O
   O304       1.0     0.362718     0.785484     0.470971    Uiso  ? O
   O305       1.0     0.384120     0.808552     0.527412    Uiso  ? O
   O306       1.0     0.351953     0.791640     0.518348    Uiso  ? O
   O307       1.0     0.403507     0.788814     0.533914    Uiso  ? O
   O308       1.0     0.390954     0.755534     0.524036    Uiso  ? O
   O309       1.0     0.413382     0.767047     0.482929    Uiso  ? O
   O310       1.0     0.379529     0.761095     0.468546    Uiso  ? O
   O311       1.0     0.526805     0.187395     0.370200    Uiso  ? O
   O312       1.0     0.538522     0.221846     0.363057    Uiso  ? O
   O313       1.0     0.525925     0.216210     0.415969    Uiso  ? O
   O314       1.0     0.532087     0.239276     0.387349    Uiso  ? O
   O315       1.0     0.476706     0.213010     0.407494    Uiso  ? O
   O316       1.0     0.487104     0.243666     0.390069    Uiso  ? O
   O317       1.0     0.470943     0.192483     0.385767    Uiso  ? O
   O318       1.0     0.486254     0.200879     0.354026    Uiso  ? O
   O319       1.0     0.430363     0.109426     0.568583    Uiso  ? O
   O320       1.0     0.429264     0.173838     0.499608    Uiso  ? O
   O321       1.0     0.498062     0.173668     0.571042    Uiso  ? O
   O322       1.0     0.425961     0.891761     0.433675    Uiso  ? O
   O323       1.0     0.436603     0.807060     0.491685    Uiso  ? O
   O324       1.0     0.508779     0.161475     0.414267    Uiso  ? O
   Zn61       1.0     0.404198     0.105670     0.592329    Uiso  ? Zn
   Zn62       1.0     0.368738     0.105375     0.627280    Uiso  ? Zn
   Zn63       1.0     0.405884     0.200383     0.494436    Uiso  ? Zn
   Zn64       1.0     0.370528     0.238259     0.494082    Uiso  ? Zn
   Zn65       1.0     0.501310     0.198771     0.594936    Uiso  ? Zn
   Zn66       1.0     0.501877     0.235903     0.632149    Uiso  ? Zn
   Zn67       1.0     0.405677     0.895202     0.405248    Uiso  ? Zn
   Zn68       1.0     0.371797     0.893122     0.363049    Uiso  ? Zn
   Zn69       1.0     0.403355     0.796664     0.498170    Uiso  ? Zn
   Zn70       1.0     0.365613     0.764647     0.500227    Uiso  ? Zn
   Zn71       1.0     0.506059     0.193606     0.398009    Uiso  ? Zn
   Zn72       1.0     0.504413     0.231124     0.362524    Uiso  ? Zn
   H337       1.0     0.427935     0.160633     0.490366    Uiso  ? H
   H338       1.0     0.433652     0.173373     0.515363    Uiso  ? H
   H339       1.0     0.572212     0.832166     0.481913    Uiso  ? H
   H340       1.0     0.563517     0.828834     0.507595    Uiso  ? H
   H341       1.0     0.490288     0.839183     0.558828    Uiso  ? H
   H342       1.0     0.503498     0.816547     0.546145    Uiso  ? H
   H343       1.0     0.563927     0.880076     0.576841    Uiso  ? H
   H344       1.0     0.571027     0.106255     0.560922    Uiso  ? H
   H345       1.0     0.520967     0.158694     0.424753    Uiso  ? H
   H346       1.0     0.500191     0.148757     0.408515    Uiso  ? H
   H347       1.0     0.567125     0.118357     0.433475    Uiso  ? H
   H348       1.0     0.558239     0.891371     0.419200    Uiso  ? H
   H349       1.0     0.568930     0.164731     0.492819    Uiso  ? H
   H350       1.0     0.555078     0.186449     0.504651    Uiso  ? H
   H351       1.0     0.439621     0.105848     0.434934    Uiso  ? H
   H352       1.0     0.420827     0.880747     0.444275    Uiso  ? H
   H353       1.0     0.479652     0.809689     0.449908    Uiso  ? H
   H354       1.0     0.490823     0.830522     0.432476    Uiso  ? H
   H355       1.0     0.441414     0.821550     0.497996    Uiso  ? H
   H356       1.0     0.447206     0.799848     0.481595    Uiso  ? H
   H357       1.0     0.487551     0.177414     0.558281    Uiso  ? H
   H358       1.0     0.507974     0.160451     0.571346    Uiso  ? H
   H359       1.0     0.445061     0.111556     0.575752    Uiso  ? H
   H360       1.0     0.426679     0.119271     0.555825    Uiso  ? H
   C577       1.0     0.405999     0.364979     0.133017    Uiso  ? C
   C578       1.0     0.415364     0.355011     0.152111    Uiso  ? C
   C579       1.0     0.406849     0.333772     0.160937    Uiso  ? C
   H361       1.0     0.394684     0.324319     0.150489    Uiso  ? H
   C580       1.0     0.418398     0.322352     0.177468    Uiso  ? C
   H362       1.0     0.412889     0.306161     0.182995    Uiso  ? H
   C581       1.0     0.437133     0.333846     0.188623    Uiso  ? C
   H363       1.0     0.445144     0.325854     0.203173    Uiso  ? H
   C582       1.0     0.443769     0.355575     0.182590    Uiso  ? C
   C583       1.0     0.433363     0.365818     0.163930    Uiso  ? C
   H364       1.0     0.438645     0.382441     0.158416    Uiso  ? H
   C584       1.0     0.463393     0.366245     0.192949    Uiso  ? C
   C585       1.0     0.363892     0.418809     0.120281    Uiso  ? C
   C586       1.0     0.349202     0.436728     0.131678    Uiso  ? C
   C587       1.0     0.325067     0.436727     0.130364    Uiso  ? C
   H365       1.0     0.317320     0.423018     0.121486    Uiso  ? H
   C588       1.0     0.312059     0.451135     0.143811    Uiso  ? C
   H366       1.0     0.293875     0.449569     0.142750    Uiso  ? H
   C589       1.0     0.322556     0.464587     0.159244    Uiso  ? C
   H367       1.0     0.312115     0.474693     0.170194    Uiso  ? H
   C590       1.0     0.346005     0.466320     0.160381    Uiso  ? C
   C591       1.0     0.359976     0.454130     0.144932    Uiso  ? C
   H368       1.0     0.377530     0.453928     0.147595    Uiso  ? H
   C592       1.0     0.357449     0.478468     0.178257    Uiso  ? C
   C593       1.0     0.369072     0.410123     0.866100    Uiso  ? C
   C594       1.0     0.358361     0.423155     0.846760    Uiso  ? C
   C595       1.0     0.334701     0.419310     0.842047    Uiso  ? C
   H369       1.0     0.324561     0.406414     0.850163    Uiso  ? H
   C596       1.0     0.324374     0.429378     0.824059    Uiso  ? C
   H370       1.0     0.306151     0.427098     0.821155    Uiso  ? H
   C597       1.0     0.334940     0.447082     0.811971    Uiso  ? C
   H371       1.0     0.324964     0.456029     0.798804    Uiso  ? H
   C598       1.0     0.357726     0.451805     0.817260    Uiso  ? C
   C599       1.0     0.369905     0.439163     0.834864    Uiso  ? C
   H372       1.0     0.386666     0.444103     0.838827    Uiso  ? H
   C600       1.0     0.368290     0.470927     0.806507    Uiso  ? C
   C601       1.0     0.408372     0.369704     0.863886    Uiso  ? C
   C602       1.0     0.417717     0.358855     0.843329    Uiso  ? C
   C603       1.0     0.411227     0.336977     0.835800    Uiso  ? C
   H373       1.0     0.398880     0.327285     0.845912    Uiso  ? H
   C604       1.0     0.419613     0.329494     0.815252    Uiso  ? C
   H374       1.0     0.415792     0.312103     0.811071    Uiso  ? H
   C605       1.0     0.436093     0.341832     0.803373    Uiso  ? C
   H375       1.0     0.444397     0.332418     0.789337    Uiso  ? H
   C606       1.0     0.443136     0.362436     0.811734    Uiso  ? C
   C607       1.0     0.433043     0.371161     0.830872    Uiso  ? C
   H376       1.0     0.438431     0.388380     0.834358    Uiso  ? H
   C608       1.0     0.462745     0.375138     0.800578    Uiso  ? C
   C609       1.0     0.524659     0.416307     0.232642    Uiso  ? C
   C610       1.0     0.538149     0.432943     0.245914    Uiso  ? C
   C611       1.0     0.537658     0.433644     0.270052    Uiso  ? C
   H377       1.0     0.524974     0.423592     0.278815    Uiso  ? H
   C612       1.0     0.551474     0.448907     0.281580    Uiso  ? C
   H378       1.0     0.550059     0.450482     0.298766    Uiso  ? H
   C613       1.0     0.566451     0.463744     0.270568    Uiso  ? C
   H379       1.0     0.576695     0.475182     0.280626    Uiso  ? H
   C614       1.0     0.566900     0.463855     0.246937    Uiso  ? C
   C615       1.0     0.552224     0.449146     0.234677    Uiso  ? C
   H380       1.0     0.552117     0.448575     0.216153    Uiso  ? H
   C616       1.0     0.582562     0.478771     0.234607    Uiso  ? C
   C617       1.0     0.467681     0.406343     0.229479    Uiso  ? C
   C618       1.0     0.448149     0.418149     0.239605    Uiso  ? C
   C619       1.0     0.443302     0.413443     0.262645    Uiso  ? C
   H381       1.0     0.451446     0.398577     0.271537    Uiso  ? H
   C620       1.0     0.430707     0.429992     0.274842    Uiso  ? C
   H382       1.0     0.429215     0.428274     0.293867    Uiso  ? H
   C621       1.0     0.418426     0.446867     0.263726    Uiso  ? C
   H383       1.0     0.406850     0.455802     0.273992    Uiso  ? H
   C622       1.0     0.419911     0.448304     0.239765    Uiso  ? C
   C623       1.0     0.436527     0.435435     0.228670    Uiso  ? C
   H384       1.0     0.441142     0.437553     0.210376    Uiso  ? H
   C624       1.0     0.406168     0.465770     0.227526    Uiso  ? C
   C625       1.0     0.531930     0.362084     0.187835    Uiso  ? C
   C626       1.0     0.552512     0.352246     0.176932    Uiso  ? C
   C627       1.0     0.564262     0.334801     0.187074    Uiso  ? C
   H385       1.0     0.557310     0.327893     0.203166    Uiso  ? H
   C628       1.0     0.585386     0.328336     0.179326    Uiso  ? C
   H386       1.0     0.594839     0.314889     0.187340    Uiso  ? H
   C629       1.0     0.596216     0.340417     0.161737    Uiso  ? C
   H387       1.0     0.613876     0.337300     0.157501    Uiso  ? H
   C630       1.0     0.584441     0.358188     0.151040    Uiso  ? C
   C631       1.0     0.562480     0.362306     0.157697    Uiso  ? C
   H388       1.0     0.554413     0.376522     0.151566    Uiso  ? H
   C632       1.0     0.595635     0.369697     0.131842    Uiso  ? C
   C633       1.0     0.397568     0.540865     0.224051    Uiso  ? C
   C634       1.0     0.404155     0.564201     0.232633    Uiso  ? C
   C635       1.0     0.389569     0.577144     0.246470    Uiso  ? C
   H389       1.0     0.373993     0.569840     0.251635    Uiso  ? H
   C636       1.0     0.394277     0.598791     0.253321    Uiso  ? C
   H390       1.0     0.381896     0.609146     0.262800    Uiso  ? H
   C637       1.0     0.415889     0.607458     0.247400    Uiso  ? C
   H391       1.0     0.420561     0.623575     0.254589    Uiso  ? H
   C638       1.0     0.431824     0.593912     0.234945    Uiso  ? C
   C639       1.0     0.425022     0.573301     0.227293    Uiso  ? C
   H392       1.0     0.435586     0.563098     0.215678    Uiso  ? H
   C640       1.0     0.454363     0.602733     0.230826    Uiso  ? C
   C641       1.0     0.364342     0.530027     0.185053    Uiso  ? C
   C642       1.0     0.352267     0.548270     0.174111    Uiso  ? C
   C643       1.0     0.331127     0.555525     0.180435    Uiso  ? C
   H393       1.0     0.321395     0.546022     0.191856    Uiso  ? H
   C644       1.0     0.322177     0.576074     0.172738    Uiso  ? C
   H394       1.0     0.306968     0.581907     0.179987    Uiso  ? H
   C645       1.0     0.334061     0.589486     0.156116    Uiso  ? C
   H395       1.0     0.326953     0.606051     0.151750    Uiso  ? H
   C646       1.0     0.354205     0.580604     0.147128    Uiso  ? C
   C647       1.0     0.363667     0.560982     0.156904    Uiso  ? C
   H396       1.0     0.380094     0.556291     0.150134    Uiso  ? H
   C648       1.0     0.366702     0.593668     0.131173    Uiso  ? C
   C649       1.0     0.636259     0.409136     0.132317    Uiso  ? C
   C650       1.0     0.647439     0.419337     0.152065    Uiso  ? C
   C651       1.0     0.665069     0.408305     0.163609    Uiso  ? C
   H397       1.0     0.672821     0.393214     0.158262    Uiso  ? H
   C652       1.0     0.675091     0.418611     0.182360    Uiso  ? C
   H398       1.0     0.688470     0.411069     0.191502    Uiso  ? H
   C653       1.0     0.665963     0.438889     0.190775    Uiso  ? C
   H399       1.0     0.671415     0.447306     0.206278    Uiso  ? H
   C654       1.0     0.647034     0.448922     0.180360    Uiso  ? C
   C655       1.0     0.637950     0.439278     0.161130    Uiso  ? C
   H400       1.0     0.624685     0.447257     0.152085    Uiso  ? H
   C656       1.0     0.637354     0.470017     0.190188    Uiso  ? C
   C657       1.0     0.591633     0.366666     0.867293    Uiso  ? C
   C658       1.0     0.579366     0.352935     0.849249    Uiso  ? C
   C659       1.0     0.588586     0.332421     0.840151    Uiso  ? C
   H401       1.0     0.604531     0.325028     0.847183    Uiso  ? H
   C660       1.0     0.580042     0.322602     0.819202    Uiso  ? C
   H402       1.0     0.586351     0.306210     0.814015    Uiso  ? H
   C661       1.0     0.562063     0.333322     0.807438    Uiso  ? C
   H403       1.0     0.555508     0.326555     0.791777    Uiso  ? H
   C662       1.0     0.551549     0.352265     0.818514    Uiso  ? C
   C663       1.0     0.559570     0.361561     0.839427    Uiso  ? C
   H404       1.0     0.550618     0.375862     0.848272    Uiso  ? H
   C664       1.0     0.532859     0.365642     0.805662    Uiso  ? C
   C665       1.0     0.471722     0.413905     0.761383    Uiso  ? C
   C666       1.0     0.455255     0.429309     0.750738    Uiso  ? C
   C667       1.0     0.454080     0.429417     0.726966    Uiso  ? C
   H405       1.0     0.463974     0.419219     0.716233    Uiso  ? H
   C668       1.0     0.437138     0.443063     0.715756    Uiso  ? C
   H406       1.0     0.435074     0.442960     0.696917    Uiso  ? H
   C669       1.0     0.424055     0.457568     0.728899    Uiso  ? C
   H407       1.0     0.411575     0.468277     0.719429    Uiso  ? H
   C670       1.0     0.426767     0.459345     0.752470    Uiso  ? C
   C671       1.0     0.442648     0.444788     0.763504    Uiso  ? C
   H408       1.0     0.443764     0.446346     0.782334    Uiso  ? H
   C672       1.0     0.409906     0.473058     0.765920    Uiso  ? C
   O325       1.0     0.417634     0.376204     0.118397    Uiso  ? O
   O326       1.0     0.384638     0.361706     0.130141    Uiso  ? O
   O327       1.0     0.384843     0.422097     0.117841    Uiso  ? O
   O328       1.0     0.353223     0.401491     0.111563    Uiso  ? O
   O329       1.0     0.390375     0.410538     0.868140    Uiso  ? O
   O330       1.0     0.357073     0.399214     0.880974    Uiso  ? O
   O331       1.0     0.412132     0.390662     0.868265    Uiso  ? O
   O332       1.0     0.392312     0.359546     0.874915    Uiso  ? O
   O333       1.0     0.520907     0.419723     0.211925    Uiso  ? O
   O334       1.0     0.516678     0.397856     0.241183    Uiso  ? O
   O335       1.0     0.470193     0.406891     0.207955    Uiso  ? O
   O336       1.0     0.481967     0.395038     0.241374    Uiso  ? O
   O337       1.0     0.467168     0.387320     0.190010    Uiso  ? O
   O338       1.0     0.475540     0.355480     0.206604    Uiso  ? O
   O339       1.0     0.520232     0.376550     0.177519    Uiso  ? O
   O340       1.0     0.527124     0.357440     0.208472    Uiso  ? O
   O341       1.0     0.411079     0.529059     0.211485    Uiso  ? O
   O342       1.0     0.377147     0.533023     0.228230    Uiso  ? O
   O343       1.0     0.376670     0.515983     0.172987    Uiso  ? O
   O344       1.0     0.361334     0.527379     0.206091    Uiso  ? O
   O345       1.0     0.375552     0.488788     0.171936    Uiso  ? O
   O346       1.0     0.349907     0.479711     0.198094    Uiso  ? O
   O347       1.0     0.411421     0.471280     0.207970    Uiso  ? O
   O348       1.0     0.389371     0.475491     0.237667    Uiso  ? O
   O349       1.0     0.625332     0.421789     0.118375    Uiso  ? O
   O350       1.0     0.639147     0.387709     0.128699    Uiso  ? O
   O351       1.0     0.583620     0.379895     0.117761    Uiso  ? O
   O352       1.0     0.617732     0.369751     0.129091    Uiso  ? O
   O353       1.0     0.590119     0.388193     0.867808    Uiso  ? O
   O354       1.0     0.606970     0.355697     0.879435    Uiso  ? O
   O355       1.0     0.610776     0.408850     0.866096    Uiso  ? O
   O356       1.0     0.644385     0.395930     0.878199    Uiso  ? O
   O357       1.0     0.519778     0.378129     0.816969    Uiso  ? O
   O358       1.0     0.531303     0.365448     0.783502    Uiso  ? O
   O359       1.0     0.467571     0.396065     0.805041    Uiso  ? O
   O360       1.0     0.475428     0.363128     0.786532    Uiso  ? O
   O361       1.0     0.473794     0.413570     0.782204    Uiso  ? O
   O362       1.0     0.486775     0.402483     0.749742    Uiso  ? O
   O363       1.0     0.527276     0.421448     0.780243    Uiso  ? O
   O364       1.0     0.515363     0.405540     0.749890    Uiso  ? O
   O365       1.0     0.611912     0.532125     0.188094    Uiso  ? O
   O366       1.0     0.638543     0.532245     0.213388    Uiso  ? O
   O367       1.0     0.587631     0.530904     0.207396    Uiso  ? O
   O368       1.0     0.599339     0.518834     0.241066    Uiso  ? O
   O369       1.0     0.583163     0.478931     0.213475    Uiso  ? O
   O370       1.0     0.596222     0.491644     0.244865    Uiso  ? O
   O371       1.0     0.624590     0.482435     0.177350    Uiso  ? O
   O372       1.0     0.636940     0.472792     0.211702    Uiso  ? O
   O373       1.0     0.437500     0.421513     0.105999    Uiso  ? O
   O374       1.0     0.502693     0.425489     0.164941    Uiso  ? O
   O375       1.0     0.432511     0.504315     0.169386    Uiso  ? O
   O376       1.0     0.575473     0.433046     0.103737    Uiso  ? O
   O377       1.0     0.511006     0.430043     0.827013    Uiso  ? O
   O378       1.0     0.576759     0.498285     0.159296    Uiso  ? O
   Zn73       1.0     0.407467     0.403334     0.898994    Uiso  ? Zn
   Zn74       1.0     0.368466     0.369111     0.899584    Uiso  ? Zn
   Zn75       1.0     0.500203     0.401587     0.190628    Uiso  ? Zn
   Zn76       1.0     0.500401     0.366457     0.229195    Uiso  ? Zn
   Zn77       1.0     0.403146     0.501124     0.190756    Uiso  ? Zn
   Zn78       1.0     0.363211     0.498008     0.226388    Uiso  ? Zn
   Zn79       1.0     0.598215     0.405613     0.899128    Uiso  ? Zn
   Zn80       1.0     0.632912     0.368056     0.897351    Uiso  ? Zn
   Zn81       1.0     0.503802     0.405630     0.802435    Uiso  ? Zn
   Zn82       1.0     0.502521     0.373259     0.764784    Uiso  ? Zn
   Zn83       1.0     0.597781     0.500132     0.189689    Uiso  ? Zn
   Zn84       1.0     0.628841     0.502824     0.230808    Uiso  ? Zn
   C673       1.0     0.579427     0.643488     0.879106    Uiso  ? C
   C674       1.0     0.561689     0.656318     0.866362    Uiso  ? C
   C675       1.0     0.557015     0.678993     0.871097    Uiso  ? C
   H409       1.0     0.566466     0.689594     0.882143    Uiso  ? H
   C676       1.0     0.540624     0.690322     0.857757    Uiso  ? C
   H410       1.0     0.538776     0.708481     0.860039    Uiso  ? H
   C677       1.0     0.529164     0.678800     0.839713    Uiso  ? C
   H411       1.0     0.517545     0.688094     0.828890    Uiso  ? H
   C678       1.0     0.532570     0.655320     0.836479    Uiso  ? C
   C679       1.0     0.549194     0.644819     0.848861    Uiso  ? C
   H412       1.0     0.555884     0.627311     0.843185    Uiso  ? H
   C680       1.0     0.521705     0.641768     0.817998    Uiso  ? C
   C681       1.0     0.631890     0.597756     0.866288    Uiso  ? C
   C682       1.0     0.642978     0.587897     0.845325    Uiso  ? C
   C683       1.0     0.661366     0.598674     0.835426    Uiso  ? C
   H413       1.0     0.670093     0.612586     0.844444    Uiso  ? H
   C684       1.0     0.669032     0.591112     0.815283    Uiso  ? C
   H414       1.0     0.684068     0.601469     0.807465    Uiso  ? H
   C685       1.0     0.661813     0.570228     0.805410    Uiso  ? C
   H415       1.0     0.670405     0.565700     0.789827    Uiso  ? H
   C686       1.0     0.644206     0.557755     0.815540    Uiso  ? C
   C687       1.0     0.634990     0.567318     0.834817    Uiso  ? C
   H416       1.0     0.619303     0.561224     0.841969    Uiso  ? H
   C688       1.0     0.632873     0.538771     0.804000    Uiso  ? C
   C689       1.0     0.628450     0.603901     0.138695    Uiso  ? C
   C690       1.0     0.637705     0.594029     0.160012    Uiso  ? C
   C691       1.0     0.655873     0.604707     0.171495    Uiso  ? C
   H417       1.0     0.664451     0.620446     0.165502    Uiso  ? H
   C692       1.0     0.663699     0.594526     0.191483    Uiso  ? C
   H418       1.0     0.680740     0.600815     0.197725    Uiso  ? H
   C693       1.0     0.654607     0.574748     0.199828    Uiso  ? C
   H419       1.0     0.661834     0.566996     0.214526    Uiso  ? H
   C694       1.0     0.636649     0.564159     0.188103    Uiso  ? C
   C695       1.0     0.627742     0.574454     0.168497    Uiso  ? C
   H420       1.0     0.616041     0.564984     0.158592    Uiso  ? H
   C696       1.0     0.628338     0.541649     0.197028    Uiso  ? C
   C697       1.0     0.586211     0.634573     0.132819    Uiso  ? C
   C698       1.0     0.574078     0.645988     0.152671    Uiso  ? C
   C699       1.0     0.575645     0.669486     0.155189    Uiso  ? C
   H421       1.0     0.584274     0.678704     0.142925    Uiso  ? H
   C700       1.0     0.564647     0.680385     0.172511    Uiso  ? C
   H422       1.0     0.564928     0.698058     0.173848    Uiso  ? H
   C701       1.0     0.551889     0.668280     0.188859    Uiso  ? C
   H423       1.0     0.542766     0.677121     0.201772    Uiso  ? H
   C702       1.0     0.547492     0.644803     0.184797    Uiso  ? C
   C703       1.0     0.559817     0.633146     0.167955    Uiso  ? C
   H424       1.0     0.557987     0.615208     0.163982    Uiso  ? H
   C704       1.0     0.528458     0.632513     0.197141    Uiso  ? C
   C705       1.0     0.459488     0.604853     0.773013    Uiso  ? C
   C706       1.0     0.438618     0.596133     0.763057    Uiso  ? C
   C707       1.0     0.427964     0.605847     0.744207    Uiso  ? C
   H425       1.0     0.432481     0.622770     0.737281    Uiso  ? H
   C708       1.0     0.408978     0.595896     0.734281    Uiso  ? C
   H426       1.0     0.401320     0.605742     0.720146    Uiso  ? H
   C709       1.0     0.400644     0.575762     0.742387    Uiso  ? C
   H427       1.0     0.385217     0.570115     0.735575    Uiso  ? H
   C710       1.0     0.410817     0.565168     0.761295    Uiso  ? C
   C711       1.0     0.430673     0.575353     0.771408    Uiso  ? C
   H428       1.0     0.440864     0.565305     0.783576    Uiso  ? H
   C712       1.0     0.402254     0.542768     0.768760    Uiso  ? C
   C713       1.0     0.534218     0.597079     0.768080    Uiso  ? C
   C714       1.0     0.552182     0.585193     0.755822    Uiso  ? C
   C715       1.0     0.558224     0.592148     0.733552    Uiso  ? C
   H429       1.0     0.552343     0.608428     0.726164    Uiso  ? H
   C716       1.0     0.573448     0.579001     0.722682    Uiso  ? C
   H430       1.0     0.577096     0.582815     0.705250    Uiso  ? H
   C717       1.0     0.584673     0.560540     0.732360    Uiso  ? C
   H431       1.0     0.596199     0.552184     0.722830    Uiso  ? H
   C718       1.0     0.578774     0.552983     0.753673    Uiso  ? C
   C719       1.0     0.562314     0.565999     0.765886    Uiso  ? C
   H432       1.0     0.557955     0.558969     0.781611    Uiso  ? H
   C720       1.0     0.592544     0.535526     0.765202    Uiso  ? C
   C721       1.0     0.471600     0.639625     0.811672    Uiso  ? C
   C722       1.0     0.453500     0.651289     0.823925    Uiso  ? C
   C723       1.0     0.448827     0.675301     0.820189    Uiso  ? C
   H433       1.0     0.459286     0.685093     0.809595    Uiso  ? H
   C724       1.0     0.431550     0.686095     0.832823    Uiso  ? C
   H434       1.0     0.427020     0.704095     0.829643    Uiso  ? H
   C725       1.0     0.419491     0.673413     0.849223    Uiso  ? C
   H435       1.0     0.406708     0.682414     0.858732    Uiso  ? H
   C726       1.0     0.423984     0.650136     0.852369    Uiso  ? C
   C727       1.0     0.440849     0.639945     0.839373    Uiso  ? C
   H436       1.0     0.442108     0.621723     0.842232    Uiso  ? H
   C728       1.0     0.410263     0.636613     0.868480    Uiso  ? C
   C729       1.0     0.583438     0.482289     0.760238    Uiso  ? C
   C730       1.0     0.567783     0.468143     0.746509    Uiso  ? C
   C731       1.0     0.567482     0.469381     0.722025    Uiso  ? C
   H437       1.0     0.576495     0.483799     0.714385    Uiso  ? H
   C732       1.0     0.552376     0.455552     0.709936    Uiso  ? C
   H438       1.0     0.551318     0.457598     0.691617    Uiso  ? H
   C733       1.0     0.540445     0.438533     0.721705    Uiso  ? C
   H439       1.0     0.529336     0.426766     0.712885    Uiso  ? H
   C734       1.0     0.541439     0.436529     0.745673    Uiso  ? C
   C735       1.0     0.555710     0.451511     0.756973    Uiso  ? C
   H440       1.0     0.557247     0.450517     0.774599    Uiso  ? H
   C736       1.0     0.527354     0.420883     0.759375    Uiso  ? C
   C737       1.0     0.634130     0.466493     0.803134    Uiso  ? C
   C738       1.0     0.644106     0.445816     0.813600    Uiso  ? C
   C739       1.0     0.661526     0.433514     0.803156    Uiso  ? C
   H441       1.0     0.669817     0.437753     0.787468    Uiso  ? H
   C740       1.0     0.669800     0.414875     0.814350    Uiso  ? C
   H442       1.0     0.683589     0.404861     0.806527    Uiso  ? H
   C741       1.0     0.661570     0.408130     0.835545    Uiso  ? C
   H443       1.0     0.670068     0.393958     0.843815    Uiso  ? H
   C742       1.0     0.642846     0.418482     0.844189    Uiso  ? C
   C743       1.0     0.633733     0.437578     0.833447    Uiso  ? C
   H444       1.0     0.618673     0.445992     0.841365    Uiso  ? H
   C744       1.0     0.632249     0.407721     0.864072    Uiso  ? C
   C745       1.0     0.363314     0.589715     0.874019    Uiso  ? C
   C746       1.0     0.351603     0.576182     0.856032    Uiso  ? C
   C747       1.0     0.330819     0.584454     0.847678    Uiso  ? C
   H445       1.0     0.321488     0.598992     0.854392    Uiso  ? H
   C748       1.0     0.321102     0.572984     0.828414    Uiso  ? C
   H446       1.0     0.303511     0.576761     0.822794    Uiso  ? H
   C749       1.0     0.332348     0.555221     0.818139    Uiso  ? C
   H447       1.0     0.326013     0.548838     0.803319    Uiso  ? H
   C750       1.0     0.353387     0.548253     0.826833    Uiso  ? C
   C751       1.0     0.361649     0.557296     0.846557    Uiso  ? C
   H448       1.0     0.378290     0.550179     0.851695    Uiso  ? H
   C752       1.0     0.365527     0.531282     0.814077    Uiso  ? C
   C753       1.0     0.408540     0.640901     0.127672    Uiso  ? C
   C754       1.0     0.420705     0.652982     0.145457    Uiso  ? C
   C755       1.0     0.416090     0.675402     0.150052    Uiso  ? C
   H449       1.0     0.403463     0.684646     0.140059    Uiso  ? H
   C756       1.0     0.425452     0.686294     0.168231    Uiso  ? C
   H450       1.0     0.420080     0.702404     0.171988    Uiso  ? H
   C757       1.0     0.441198     0.674312     0.183615    Uiso  ? C
   H451       1.0     0.447046     0.682521     0.198685    Uiso  ? H
   C758       1.0     0.447724     0.652232     0.177229    Uiso  ? C
   C759       1.0     0.436224     0.641964     0.159430    Uiso  ? C
   H452       1.0     0.439940     0.624414     0.156281    Uiso  ? H
   C760       1.0     0.464233     0.639129     0.190542    Uiso  ? C
   C761       1.0     0.524908     0.589676     0.229284    Uiso  ? C
   C762       1.0     0.543463     0.576524     0.241385    Uiso  ? C
   C763       1.0     0.547711     0.581897     0.264316    Uiso  ? C
   H453       1.0     0.536763     0.593666     0.273581    Uiso  ? H
   C764       1.0     0.565275     0.570381     0.276773    Uiso  ? C
   H454       1.0     0.568007     0.573573     0.294162    Uiso  ? H
   C765       1.0     0.577924     0.552966     0.266254    Uiso  ? C
   H455       1.0     0.589256     0.541874     0.276140    Uiso  ? H
   C766       1.0     0.574445     0.549419     0.242611    Uiso  ? C
   C767       1.0     0.557438     0.561327     0.230458    Uiso  ? C
   H456       1.0     0.554022     0.557262     0.212380    Uiso  ? H
   C768       1.0     0.587998     0.532829     0.229463    Uiso  ? C
   O379       1.0     0.578086     0.621787     0.879755    Uiso  ? O
   O380       1.0     0.596136     0.653188     0.888798    Uiso  ? O
   O381       1.0     0.621335     0.585400     0.879882    Uiso  ? O
   O382       1.0     0.633119     0.619097     0.869188    Uiso  ? O
   O383       1.0     0.610236     0.595073     0.130818    Uiso  ? O
   O384       1.0     0.639227     0.619060     0.128246    Uiso  ? O
   O385       1.0     0.585950     0.612992     0.130725    Uiso  ? O
   O386       1.0     0.599132     0.646207     0.120455    Uiso  ? O
   O387       1.0     0.466141     0.597103     0.791799    Uiso  ? O
   O388       1.0     0.470879     0.619816     0.761874    Uiso  ? O
   O389       1.0     0.523880     0.587596     0.784128    Uiso  ? O
   O390       1.0     0.528166     0.616508     0.760795    Uiso  ? O
   O391       1.0     0.517789     0.621157     0.822875    Uiso  ? O
   O392       1.0     0.513420     0.650205     0.799799    Uiso  ? O
   O393       1.0     0.473742     0.618242     0.812985    Uiso  ? O
   O394       1.0     0.483818     0.650128     0.797969    Uiso  ? O
   O395       1.0     0.580693     0.483352     0.781584    Uiso  ? O
   O396       1.0     0.600014     0.492049     0.749891    Uiso  ? O
   O397       1.0     0.628379     0.483620     0.815354    Uiso  ? O
   O398       1.0     0.632149     0.468203     0.781735    Uiso  ? O
   O399       1.0     0.612037     0.534315     0.807866    Uiso  ? O
   O400       1.0     0.643996     0.525345     0.791069    Uiso  ? O
   O401       1.0     0.591194     0.532654     0.786954    Uiso  ? O
   O402       1.0     0.604143     0.521060     0.753998    Uiso  ? O
   O403       1.0     0.375039     0.579942     0.888422    Uiso  ? O
   O404       1.0     0.360738     0.610033     0.874767    Uiso  ? O
   O405       1.0     0.409603     0.614807     0.867364    Uiso  ? O
   O406       1.0     0.399271     0.646630     0.884524    Uiso  ? O
   O407       1.0     0.410607     0.618989     0.125856    Uiso  ? O
   O408       1.0     0.395904     0.651226     0.112545    Uiso  ? O
   O409       1.0     0.379221     0.583397     0.116751    Uiso  ? O
   O410       1.0     0.360492     0.614264     0.127228    Uiso  ? O
   O411       1.0     0.475277     0.623266     0.181255    Uiso  ? O
   O412       1.0     0.464703     0.641372     0.211984    Uiso  ? O
   O413       1.0     0.523635     0.611797     0.192909    Uiso  ? O
   O414       1.0     0.515720     0.644169     0.210570    Uiso  ? O
   O415       1.0     0.524237     0.590316     0.207246    Uiso  ? O
   O416       1.0     0.511552     0.603250     0.239836    Uiso  ? O
   O417       1.0     0.469767     0.588589     0.225791    Uiso  ? O
   O418       1.0     0.458690     0.623835     0.231873    Uiso  ? O
   O419       1.0     0.389896     0.473813     0.807032    Uiso  ? O
   O420       1.0     0.356401     0.484830     0.795307    Uiso  ? O
   O421       1.0     0.410463     0.474741     0.788010    Uiso  ? O
   O422       1.0     0.398239     0.487754     0.755405    Uiso  ? O
   O423       1.0     0.416515     0.529997     0.776800    Uiso  ? O
   O424       1.0     0.380551     0.539010     0.770355    Uiso  ? O
   O425       1.0     0.381059     0.520215     0.822415    Uiso  ? O
   O426       1.0     0.361423     0.530789     0.792505    Uiso  ? O
   O427       1.0     0.579698     0.569932     0.887891    Uiso  ? O
   O428       1.0     0.501510     0.570076     0.826947    Uiso  ? O
   O429       1.0     0.575792     0.501248     0.832300    Uiso  ? O
   O430       1.0     0.428828     0.575849     0.898800    Uiso  ? O
   O431       1.0     0.481124     0.573162     0.174848    Uiso  ? O
   O432       1.0     0.435702     0.513020     0.819473    Uiso  ? O
   Zn85       1.0     0.596017     0.598007     0.898634    Uiso  ? Zn
   Zn86       1.0     0.627570     0.637981     0.899805    Uiso  ? Zn
   Zn87       1.0     0.499817     0.597360     0.805989    Uiso  ? Zn
   Zn88       1.0     0.500334     0.637937     0.768586    Uiso  ? Zn
   Zn89       1.0     0.598636     0.501194     0.803944    Uiso  ? Zn
   Zn90       1.0     0.631917     0.501062     0.768176    Uiso  ? Zn
   Zn91       1.0     0.402870     0.597673     0.898847    Uiso  ? Zn
   Zn92       1.0     0.368220     0.634588     0.100653    Uiso  ? Zn
   Zn93       1.0     0.491160     0.596421     0.198343    Uiso  ? Zn
   Zn94       1.0     0.492135     0.632505     0.233352    Uiso  ? Zn
   Zn95       1.0     0.406371     0.506924     0.800991    Uiso  ? Zn
   Zn96       1.0     0.368745     0.504486     0.768144    Uiso  ? Zn
   H457       1.0     0.514950     0.564598     0.834223    Uiso  ? H
   H458       1.0     0.486762     0.563465     0.830766    Uiso  ? H
   H459       1.0     0.494278     0.439002     0.166667    Uiso  ? H
   H460       1.0     0.516337     0.423202     0.155409    Uiso  ? H
   H461       1.0     0.560604     0.495878     0.160487    Uiso  ? H
   H462       1.0     0.585703     0.494857     0.145736    Uiso  ? H
   H463       1.0     0.561521     0.432117     0.895316    Uiso  ? H
   H464       1.0     0.575508     0.439078     0.119181    Uiso  ? H
   H465       1.0     0.431841     0.520349     0.833583    Uiso  ? H
   H466       1.0     0.450002     0.508534     0.813393    Uiso  ? H
   H467       1.0     0.449882     0.421105     0.895436    Uiso  ? H
   H468       1.0     0.442335     0.427248     0.119961    Uiso  ? H
   H469       1.0     0.501327     0.431039     0.840332    Uiso  ? H
   H470       1.0     0.520736     0.442520     0.824533    Uiso  ? H
   H471       1.0     0.444660     0.582265     0.898969    Uiso  ? H
   H472       1.0     0.424292     0.560704     0.101242    Uiso  ? H
   H473       1.0     0.443715     0.492932     0.169175    Uiso  ? H
   H474       1.0     0.435658     0.519245     0.162375    Uiso  ? H
   H475       1.0     0.466061     0.566995     0.175052    Uiso  ? H
   H476       1.0     0.492721     0.570479     0.163245    Uiso  ? H
   H477       1.0     0.559461     0.503120     0.828651    Uiso  ? H
   H478       1.0     0.581007     0.499409     0.847642    Uiso  ? H
   H479       1.0     0.585374     0.554051     0.889895    Uiso  ? H
   H480       1.0     0.565099     0.573167     0.881652    Uiso  ? H
   H481       1.0     0.533536     0.271318     0.346457    Uiso  ? H
   N1         1.0     0.501803     0.255796     0.338465    Uiso  ? N
   H482       1.0     0.471138     0.242572     0.321737    Uiso  ? H
   C769       1.0     0.518559     0.271576     0.336318    Uiso  ? C
   C770       1.0     0.484006     0.255271     0.322419    Uiso  ? C
   C771       1.0     0.516897     0.288380     0.319948    Uiso  ? C
   C772       1.0     0.483428     0.270874     0.304348    Uiso  ? C
   H483       1.0     0.531170     0.300028     0.319117    Uiso  ? H
   H484       1.0     0.469643     0.270038     0.291397    Uiso  ? H
   C773       1.0     0.499667     0.287909     0.302792    Uiso  ? C
   C774       1.0     0.498661     0.305748     0.285633    Uiso  ? C
   H485       1.0     0.488204     0.284216     0.258310    Uiso  ? H
   H486       1.0     0.503906     0.334476     0.308746    Uiso  ? H
   C775       1.0     0.492682     0.301257     0.262824    Uiso  ? C
   C776       1.0     0.503101     0.328942     0.291135    Uiso  ? C
   C777       1.0     0.494766     0.318907     0.246717    Uiso  ? C
   C778       1.0     0.504618     0.345514     0.274446    Uiso  ? C
   H487       1.0     0.490549     0.316301     0.228743    Uiso  ? H
   N2         1.0     0.500975     0.340650     0.252583    Uiso  ? N
   H488       1.0     0.507330     0.363641     0.278337    Uiso  ? H
   H489       1.0     0.532253     0.743577     0.336418    Uiso  ? H
   N3         1.0     0.497705     0.738454     0.344346    Uiso  ? N
   H490       1.0     0.461262     0.733807     0.346418    Uiso  ? H
   C779       1.0     0.516980     0.734095     0.332084    Uiso  ? C
   C780       1.0     0.477859     0.729091     0.338842    Uiso  ? C
   C781       1.0     0.517039     0.717471     0.316168    Uiso  ? C
   C782       1.0     0.477163     0.712776     0.321749    Uiso  ? C
   H491       1.0     0.534435     0.710868     0.308907    Uiso  ? H
   H492       1.0     0.461996     0.705080     0.317612    Uiso  ? H
   C783       1.0     0.497083     0.706572     0.310747    Uiso  ? C
   C784       1.0     0.495666     0.688614     0.292708    Uiso  ? C
   H493       1.0     0.517444     0.705441     0.269651    Uiso  ? H
   H494       1.0     0.471590     0.666371     0.310446    Uiso  ? H
   C785       1.0     0.507066     0.691216     0.271778    Uiso  ? C
   C786       1.0     0.482088     0.669589     0.295755    Uiso  ? C
   C787       1.0     0.507579     0.673346     0.255771    Uiso  ? C
   C788       1.0     0.481085     0.653495     0.277852    Uiso  ? C
   H495       1.0     0.519709     0.673569     0.241309    Uiso  ? H
   N4         1.0     0.494283     0.655597     0.258961    Uiso  ? N
   H496       1.0     0.472316     0.638545     0.279514    Uiso  ? H
   H497       1.0     0.517745     0.716821     0.631819    Uiso  ? H
   N5         1.0     0.504388     0.742319     0.653263    Uiso  ? N
   H498       1.0     0.490066     0.765596     0.675800    Uiso  ? H
   C789       1.0     0.511380     0.720946     0.648552    Uiso  ? C
   C790       1.0     0.496098     0.749070     0.673440    Uiso  ? C
   C791       1.0     0.509074     0.704381     0.664956    Uiso  ? C
   C792       1.0     0.497210     0.734144     0.691400    Uiso  ? C
   H499       1.0     0.511060     0.685893     0.661148    Uiso  ? H
   H500       1.0     0.492573     0.740636     0.708825    Uiso  ? H
   C793       1.0     0.503191     0.710489     0.687407    Uiso  ? C
   C794       1.0     0.502888     0.693037     0.706089    Uiso  ? C
   H501       1.0     0.473621     0.707545     0.721933    Uiso  ? H
   H502       1.0     0.531840     0.674356     0.693826    Uiso  ? H
   C795       1.0     0.486816     0.694019     0.723266    Uiso  ? C
   C796       1.0     0.519264     0.675170     0.707325    Uiso  ? C
   C797       1.0     0.485868     0.677901     0.741251    Uiso  ? C
   C798       1.0     0.518552     0.659400     0.725157    Uiso  ? C
   H503       1.0     0.471583     0.677495     0.752884    Uiso  ? H
   N6         1.0     0.502304     0.660546     0.742573    Uiso  ? N
   H504       1.0     0.529758     0.645880     0.725905    Uiso  ? H
   H505       1.0     0.481868     0.282483     0.634944    Uiso  ? H
   N7         1.0     0.503677     0.262143     0.654339    Uiso  ? N
   H506       1.0     0.526970     0.243955     0.676858    Uiso  ? H
   C799       1.0     0.492763     0.281464     0.649709    Uiso  ? C
   C800       1.0     0.517882     0.260506     0.673131    Uiso  ? C
   C801       1.0     0.493630     0.299863     0.665731    Uiso  ? C
   C802       1.0     0.517383     0.277703     0.690142    Uiso  ? C
   H507       1.0     0.484949     0.315096     0.661631    Uiso  ? H
   H508       1.0     0.529683     0.277342     0.703923    Uiso  ? H
   C803       1.0     0.505162     0.297947     0.686235    Uiso  ? C
   C804       1.0     0.504278     0.315946     0.703555    Uiso  ? C
   H509       1.0     0.467844     0.320874     0.702583    Uiso  ? H
   H510       1.0     0.542072     0.319726     0.707794    Uiso  ? H
   C805       1.0     0.483141     0.325152     0.710533    Uiso  ? C
   C806       1.0     0.524471     0.324972     0.712978    Uiso  ? C
   C807       1.0     0.483127     0.342329     0.728053    Uiso  ? C
   C808       1.0     0.522234     0.343184     0.729470    Uiso  ? C
   H511       1.0     0.466843     0.348354     0.734693    Uiso  ? H
   N8         1.0     0.502541     0.350000     0.737630    Uiso  ? N
   H512       1.0     0.537772     0.350030     0.737445    Uiso  ? H
   H513       1.0     0.755261     0.322753     0.479811    Uiso  ? H
   N9         1.0     0.736008     0.344898     0.499924    Uiso  ? N
   H514       1.0     0.713093     0.365448     0.519171    Uiso  ? H
   C809       1.0     0.739693     0.325323     0.488675    Uiso  ? C
   C810       1.0     0.715439     0.349775     0.508529    Uiso  ? C
   C811       1.0     0.723320     0.309597     0.486527    Uiso  ? C
   C812       1.0     0.697908     0.334197     0.508455    Uiso  ? C
   H515       1.0     0.727792     0.294416     0.478277    Uiso  ? H
   H516       1.0     0.681263     0.339389     0.515152    Uiso  ? H
   C813       1.0     0.701882     0.314173     0.496537    Uiso  ? C
   C814       1.0     0.685468     0.295777     0.498228    Uiso  ? C
   H517       1.0     0.658885     0.313137     0.480380    Uiso  ? H
   H518       1.0     0.706050     0.270928     0.515030    Uiso  ? H
   C815       1.0     0.663437     0.297566     0.489746    Uiso  ? C
   C816       1.0     0.691068     0.274543     0.507801    Uiso  ? C
   C817       1.0     0.647774     0.280380     0.491663    Uiso  ? C
   C818       1.0     0.675126     0.257348     0.508206    Uiso  ? C
   H519       1.0     0.629764     0.282051     0.486990    Uiso  ? H
   N10        1.0     0.654463     0.260335     0.500293    Uiso  ? N
   H520       1.0     0.679865     0.240913     0.514226    Uiso  ? H
   H521       1.0     0.721412     0.634516     0.483258    Uiso  ? H
   N11        1.0     0.744694     0.653434     0.501791    Uiso  ? N
   H522       1.0     0.763614     0.673180     0.525389    Uiso  ? H
   C819       1.0     0.724240     0.649770     0.491273    Uiso  ? C
   C820       1.0     0.748523     0.672392     0.514011    Uiso  ? C
   C821       1.0     0.707301     0.666696     0.491822    Uiso  ? C
   C822       1.0     0.732368     0.688988     0.515990    Uiso  ? C
   H523       1.0     0.693178     0.662584     0.480728    Uiso  ? H
   H524       1.0     0.736086     0.703574     0.526697    Uiso  ? H
   C823       1.0     0.711674     0.687518     0.503508    Uiso  ? C
   C824       1.0     0.693978     0.707176     0.501769    Uiso  ? C
   H525       1.0     0.680366     0.698311     0.468137    Uiso  ? H
   H526       1.0     0.699375     0.720907     0.534710    Uiso  ? H
   C825       1.0     0.677936     0.708492     0.483143    Uiso  ? C
   C826       1.0     0.689358     0.721625     0.519387    Uiso  ? C
   C827       1.0     0.660661     0.725541     0.482706    Uiso  ? C
   C828       1.0     0.671996     0.738444     0.518776    Uiso  ? C
   H527       1.0     0.651057     0.727229     0.467744    Uiso  ? H
   N12        1.0     0.658979     0.740188     0.500158    Uiso  ? N
   H528       1.0     0.668316     0.748740     0.532351    Uiso  ? H
   H529       1.0     0.266992     0.351698     0.463437    Uiso  ? H
   N13        1.0     0.259462     0.345184     0.497849    Uiso  ? N
   H530       1.0     0.252589     0.336497     0.531710    Uiso  ? H
   C829       1.0     0.270325     0.341202     0.477845    Uiso  ? C
   C830       1.0     0.263395     0.332269     0.516638    Uiso  ? C
   C831       1.0     0.288124     0.326090     0.476285    Uiso  ? C
   C832       1.0     0.279882     0.315475     0.515311    Uiso  ? C
   H531       1.0     0.296843     0.324410     0.460471    Uiso  ? H
   H532       1.0     0.283199     0.304336     0.529242    Uiso  ? H
   C833       1.0     0.292662     0.312331     0.495482    Uiso  ? C
   C834       1.0     0.309970     0.294307     0.496174    Uiso  ? C
   H533       1.0     0.308057     0.287294     0.459474    Uiso  ? H
   H534       1.0     0.322462     0.296896     0.531354    Uiso  ? H
   C835       1.0     0.317122     0.283352     0.475706    Uiso  ? C
   C836       1.0     0.323169     0.288319     0.515748    Uiso  ? C
   C837       1.0     0.334065     0.266041     0.475442    Uiso  ? C
   C838       1.0     0.339682     0.270971     0.514625    Uiso  ? C
   H535       1.0     0.339130     0.259424     0.458237    Uiso  ? H
   N14        1.0     0.344921     0.260727     0.494632    Uiso  ? N
   H536       1.0     0.350587     0.267260     0.528544    Uiso  ? H
   H537       1.0     0.363978     0.714180     0.492657    Uiso  ? H
   N15        1.0     0.341698     0.740298     0.501338    Uiso  ? N
   H538       1.0     0.317879     0.762877     0.511360    Uiso  ? H
   C839       1.0     0.346243     0.717706     0.495604    Uiso  ? C
   C840       1.0     0.320689     0.745964     0.509372    Uiso  ? C
   C841       1.0     0.329572     0.701656     0.496670    Uiso  ? C
   C842       1.0     0.303158     0.730161     0.509751    Uiso  ? C
   H539       1.0     0.333376     0.684654     0.495775    Uiso  ? H
   H540       1.0     0.286349     0.735982     0.515106    Uiso  ? H
   C843       1.0     0.307258     0.707894     0.501507    Uiso  ? C
   C844       1.0     0.287670     0.690471     0.500242    Uiso  ? C
   H541       1.0     0.270465     0.701407     0.530566    Uiso  ? H
   H542       1.0     0.296884     0.674673     0.468120    Uiso  ? H
   C845       1.0     0.271157     0.688211     0.517662    Uiso  ? C
   C846       1.0     0.286075     0.673618     0.482040    Uiso  ? C
   C847       1.0     0.255341     0.670864     0.517606    Uiso  ? C
   C848       1.0     0.269385     0.657019     0.482255    Uiso  ? C
   H543       1.0     0.244118     0.668352     0.530985    Uiso  ? H
   N16        1.0     0.254726     0.656264     0.499780    Uiso  ? N
   H544       1.0     0.269854     0.643989     0.468968    Uiso  ? H
   H545       1.0     0.743908     0.533152     0.330442    Uiso  ? H
   N17        1.0     0.733990     0.501206     0.343535    Uiso  ? N
   H546       1.0     0.720453     0.469797     0.353491    Uiso  ? H
   C849       1.0     0.733482     0.518691     0.328020    Uiso  ? C
   C850       1.0     0.719737     0.483804     0.341894    Uiso  ? C
   C851       1.0     0.718038     0.518625     0.310740    Uiso  ? C
   C852       1.0     0.702536     0.484700     0.325314    Uiso  ? C
   H547       1.0     0.719714     0.532238     0.296696    Uiso  ? H
   H548       1.0     0.691458     0.469765     0.322450    Uiso  ? H
   C853       1.0     0.702094     0.501514     0.308944    Uiso  ? C
   C854       1.0     0.685944     0.502149     0.289576    Uiso  ? C
   H549       1.0     0.681578     0.466241     0.287075    Uiso  ? H
   H550       1.0     0.683193     0.538762     0.289914    Uiso  ? H
   C855       1.0     0.677217     0.482382     0.280007    Uiso  ? C
   C856       1.0     0.677203     0.523430     0.281557    Uiso  ? C
   C857       1.0     0.661898     0.482856     0.262381    Uiso  ? C
   C858       1.0     0.660727     0.522952     0.264085    Uiso  ? C
   H551       1.0     0.654690     0.466312     0.254801    Uiso  ? H
   N18        1.0     0.653826     0.502824     0.254047    Uiso  ? N
   H552       1.0     0.653291     0.537452     0.256640    Uiso  ? H
   H553       1.0     0.241005     0.526775     0.322663    Uiso  ? H
   N19        1.0     0.257269     0.499398     0.337762    Uiso  ? N
   H554       1.0     0.273145     0.468438     0.347708    Uiso  ? H
   C859       1.0     0.255754     0.515103     0.321388    Uiso  ? C
   C860       1.0     0.273630     0.483158     0.337082    Uiso  ? C
   C861       1.0     0.270622     0.514715     0.301971    Uiso  ? C
   C862       1.0     0.288602     0.482403     0.318839    Uiso  ? C
   H555       1.0     0.267766     0.526961     0.288417    Uiso  ? H
   H556       1.0     0.302133     0.470229     0.320950    Uiso  ? H
   C863       1.0     0.287246     0.498514     0.301218    Uiso  ? C
   C864       1.0     0.304299     0.497984     0.282286    Uiso  ? C
   H557       1.0     0.306108     0.533836     0.279710    Uiso  ? H
   H558       1.0     0.305942     0.460466     0.281450    Uiso  ? H
   C865       1.0     0.311910     0.518158     0.272961    Uiso  ? C
   C866       1.0     0.312160     0.477021     0.274274    Uiso  ? C
   C867       1.0     0.328585     0.517936     0.256893    Uiso  ? C
   C868       1.0     0.329067     0.478155     0.257018    Uiso  ? C
   H559       1.0     0.333252     0.534422     0.249191    Uiso  ? H
   N20        1.0     0.337850     0.497871     0.248859    Uiso  ? N
   H560       1.0     0.336750     0.462252     0.251294    Uiso  ? H
   H561       1.0     0.238901     0.512843     0.679604    Uiso  ? H
   N21        1.0     0.262171     0.496962     0.656374    Uiso  ? N
   H562       1.0     0.289746     0.488685     0.635046    Uiso  ? H
   C869       1.0     0.256188     0.506364     0.676466    Uiso  ? C
   C870       1.0     0.283874     0.493105     0.651352    Uiso  ? C
   C871       1.0     0.272257     0.510320     0.693266    Uiso  ? C
   C872       1.0     0.299938     0.492792     0.668903    Uiso  ? C
   H563       1.0     0.267800     0.516594     0.709260    Uiso  ? H
   H564       1.0     0.316475     0.485460     0.666410    Uiso  ? H
   C873       1.0     0.294778     0.501363     0.690173    Uiso  ? C
   C874       1.0     0.312472     0.502174     0.708710    Uiso  ? C
   H565       1.0     0.288328     0.492821     0.735138    Uiso  ? H
   H566       1.0     0.342756     0.509838     0.688079    Uiso  ? H
   C875       1.0     0.306191     0.497678     0.731898    Uiso  ? C
   C876       1.0     0.335932     0.505883     0.704446    Uiso  ? C
   C877       1.0     0.323315     0.495749     0.748134    Uiso  ? C
   C878       1.0     0.352069     0.506328     0.722287    Uiso  ? C
   H567       1.0     0.316994     0.490811     0.765102    Uiso  ? H
   N22        1.0     0.345556     0.501825     0.743555    Uiso  ? N
   H568       1.0     0.369856     0.509364     0.718690    Uiso  ? H
   H569       1.0     0.731489     0.530259     0.652499    Uiso  ? H
   N23        1.0     0.745264     0.500383     0.666681    Uiso  ? N
   H570       1.0     0.757773     0.470293     0.679315    Uiso  ? H
   C879       1.0     0.730409     0.518197     0.666401    Uiso  ? C
   C880       1.0     0.746013     0.483930     0.682430    Uiso  ? C
   C881       1.0     0.713873     0.518605     0.683053    Uiso  ? C
   C882       1.0     0.728496     0.483771     0.698113    Uiso  ? C
   H571       1.0     0.704528     0.534251     0.681989    Uiso  ? H
   H572       1.0     0.727977     0.469075     0.710207    Uiso  ? H
   C883       1.0     0.712466     0.501300     0.699052    Uiso  ? C
   C884       1.0     0.693012     0.500728     0.715769    Uiso  ? C
   H573       1.0     0.692985     0.537059     0.720195    Uiso  ? H
   H574       1.0     0.692084     0.463852     0.719954    Uiso  ? H
   C885       1.0     0.684852     0.520814     0.724962    Uiso  ? C
   C886       1.0     0.684100     0.480173     0.723858    Uiso  ? C
   C887       1.0     0.667757     0.520787     0.741219    Uiso  ? C
   C888       1.0     0.666294     0.480854     0.739055    Uiso  ? C
   H575       1.0     0.662121     0.535466     0.750834    Uiso  ? H
   N24        1.0     0.658211     0.500754     0.747545    Uiso  ? N
   H576       1.0     0.658402     0.464617     0.743836    Uiso  ? H
   H577       1.0     0.722446     0.759559     0.115378    Uiso  ? H
   N25        1.0     0.744254     0.736511     0.897684    Uiso  ? N
   H578       1.0     0.762527     0.712384     0.878844    Uiso  ? H
   C889       1.0     0.723865     0.743743     0.106596    Uiso  ? C
   C890       1.0     0.746986     0.715460     0.888476    Uiso  ? C
   C891       1.0     0.706729     0.728965     0.107109    Uiso  ? C
   C892       1.0     0.729094     0.699980     0.887730    Uiso  ? C
   H579       1.0     0.690982     0.734102     0.113810    Uiso  ? H
   H580       1.0     0.729317     0.683511     0.879396    Uiso  ? H
   C893       1.0     0.708624     0.706653     0.897049    Uiso  ? C
   C894       1.0     0.688133     0.690274     0.894782    Uiso  ? C
   H581       1.0     0.662418     0.715407     0.891139    Uiso  ? H
   H582       1.0     0.708615     0.661957     0.103335    Uiso  ? H
   C895       1.0     0.666205     0.697838     0.893557    Uiso  ? C
   C896       1.0     0.692490     0.667299     0.899079    Uiso  ? C
   C897       1.0     0.648023     0.681818     0.892323    Uiso  ? C
   C898       1.0     0.674588     0.651878     0.899380    Uiso  ? C
   H583       1.0     0.631043     0.687434     0.889123    Uiso  ? H
   N26        1.0     0.652936     0.659923     0.896103    Uiso  ? N
   H584       1.0     0.678969     0.634570     0.899990    Uiso  ? H
   H585       1.0     0.722576     0.248053     0.123501    Uiso  ? H
   N27        1.0     0.739715     0.256637     0.893051    Uiso  ? N
   H586       1.0     0.751422     0.269749     0.861348    Uiso  ? H
   C899       1.0     0.723814     0.259637     0.109430    Uiso  ? C
   C900       1.0     0.739663     0.271226     0.874429    Uiso  ? C
   C901       1.0     0.708144     0.277008     0.108363    Uiso  ? C
   C902       1.0     0.723870     0.288573     0.872016    Uiso  ? C
   H587       1.0     0.697452     0.280504     0.122819    Uiso  ? H
   H588       1.0     0.723018     0.297429     0.856323    Uiso  ? H
   C903       1.0     0.707814     0.291051     0.889392    Uiso  ? C
   C904       1.0     0.691026     0.308602     0.889235    Uiso  ? C
   H589       1.0     0.712742     0.335585     0.882687    Uiso  ? H
   H590       1.0     0.664564     0.284667     0.894559    Uiso  ? H
   C905       1.0     0.696047     0.331483     0.885853    Uiso  ? C
   C906       1.0     0.667718     0.303171     0.892729    Uiso  ? C
   C907       1.0     0.680161     0.348470     0.888302    Uiso  ? C
   C908       1.0     0.650713     0.321028     0.894776    Uiso  ? C
   H591       1.0     0.682849     0.366956     0.884578    Uiso  ? H
   N28        1.0     0.658084     0.343206     0.893515    Uiso  ? N
   H592       1.0     0.631143     0.317617     0.894029    Uiso  ? H
   H593       1.0     0.268953     0.752486     0.870503    Uiso  ? H
   N29        1.0     0.253606     0.738226     0.898803    Uiso  ? N
   H594       1.0     0.240839     0.720383     0.127474    Uiso  ? H
   C909       1.0     0.270258     0.739548     0.882926    Uiso  ? C
   C910       1.0     0.252656     0.720862     0.113149    Uiso  ? C
   C911       1.0     0.287372     0.722362     0.882020    Uiso  ? C
   C912       1.0     0.270533     0.704986     0.112861    Uiso  ? C
   H595       1.0     0.299660     0.722329     0.868700    Uiso  ? H
   H596       1.0     0.269524     0.690969     0.124127    Uiso  ? H
   C913       1.0     0.288650     0.704850     0.897281    Uiso  ? C
   C914       1.0     0.309005     0.690181     0.898114    Uiso  ? C
   H597       1.0     0.305186     0.677276     0.863772    Uiso  ? H
   H598       1.0     0.317193     0.696382     0.132572    Uiso  ? H
   C915       1.0     0.314615     0.676408     0.879372    Uiso  ? C
   C916       1.0     0.320931     0.688111     0.117787    Uiso  ? C
   C917       1.0     0.331756     0.660241     0.881236    Uiso  ? C
   C918       1.0     0.338090     0.671099     0.118969    Uiso  ? C
   H599       1.0     0.336482     0.651081     0.865988    Uiso  ? H
   N30        1.0     0.343413     0.658819     0.100162    Uiso  ? N
   H600       1.0     0.346905     0.669190     0.133363    Uiso  ? H
   H601       1.0     0.282621     0.235075     0.106891    Uiso  ? H
   N31        1.0     0.257778     0.259856     0.100537    Uiso  ? N
   H602       1.0     0.234908     0.287102     0.895749    Uiso  ? H
   C919       1.0     0.279293     0.253243     0.103283    Uiso  ? C
   C920       1.0     0.252710     0.281192     0.898356    Uiso  ? C
   C921       1.0     0.297280     0.268494     0.102180    Uiso  ? C
   C922       1.0     0.269843     0.298534     0.100000    Uiso  ? C
   H603       1.0     0.314933     0.262091     0.102786    Uiso  ? H
   H604       1.0     0.264018     0.316088     0.101310    Uiso  ? H
   C923       1.0     0.292187     0.291576     0.900000    Uiso  ? C
   C924       1.0     0.310820     0.309499     0.899804    Uiso  ? C
   H605       1.0     0.337323     0.291874     0.115693    Uiso  ? H
   H606       1.0     0.290715     0.332607     0.881116    Uiso  ? H
   C925       1.0     0.332643     0.307117     0.108712    Uiso  ? C
   C926       1.0     0.306872     0.330422     0.889709    Uiso  ? C
   C927       1.0     0.347262     0.325294     0.109762    Uiso  ? C
   C928       1.0     0.323450     0.347901     0.889594    Uiso  ? C
   H607       1.0     0.361569     0.323010     0.120587    Uiso  ? H
   N32        1.0     0.343636     0.344755     0.899619    Uiso  ? N
   H608       1.0     0.320769     0.363900     0.881488    Uiso  ? H
   H609       1.0     0.770301     0.103257     0.715263    Uiso  ? H
   N33        1.0     0.745598     0.889624     0.741060    Uiso  ? N
   H610       1.0     0.718051     0.883393     0.762783    Uiso  ? H
   C929       1.0     0.752204     0.894556     0.719176    Uiso  ? C
   C930       1.0     0.723196     0.885820     0.745911    Uiso  ? C
   C931       1.0     0.737150     0.892729     0.701353    Uiso  ? C
   C932       1.0     0.706472     0.886027     0.729087    Uiso  ? C
   H611       1.0     0.743839     0.896118     0.685509    Uiso  ? H
   H612       1.0     0.690244     0.880869     0.734017    Uiso  ? H
   C933       1.0     0.713795     0.888087     0.706051    Uiso  ? C
   C934       1.0     0.695707     0.888493     0.688580    Uiso  ? C
   H613       1.0     0.700760     0.128346     0.681927    Uiso  ? H
   H614       1.0     0.685979     0.854248     0.692057    Uiso  ? H
   C935       1.0     0.692160     0.113228     0.677789    Uiso  ? C
   C936       1.0     0.681566     0.869819     0.683635    Uiso  ? C
   C937       1.0     0.675461     0.113071     0.660322    Uiso  ? C
   C938       1.0     0.664586     0.871771     0.667595    Uiso  ? C
   H615       1.0     0.673076     0.127659     0.651033    Uiso  ? H
   N34        1.0     0.660918     0.891622     0.656170    Uiso  ? N
   H616       1.0     0.655758     0.856682     0.663767    Uiso  ? H
   H617       1.0     0.286134     0.871673     0.756704    Uiso  ? H
   N35        1.0     0.264943     0.897286     0.741969    Uiso  ? N
   H618       1.0     0.246808     0.124451     0.723491    Uiso  ? H
   C939       1.0     0.283705     0.884129     0.742903    Uiso  ? C
   C940       1.0     0.262401     0.115252     0.723902    Uiso  ? C
   C941       1.0     0.298531     0.882316     0.724320    Uiso  ? C
   C942       1.0     0.277363     0.115746     0.705438    Uiso  ? C
   H619       1.0     0.312631     0.871468     0.725119    Uiso  ? H
   H620       1.0     0.273088     0.126166     0.690271    Uiso  ? H
   C943       1.0     0.295451     0.896502     0.704761    Uiso  ? C
   C944       1.0     0.312760     0.896651     0.686532    Uiso  ? C
   H621       1.0     0.315389     0.860557     0.681830    Uiso  ? H
   H622       1.0     0.314231     0.136566     0.683796    Uiso  ? H
   C945       1.0     0.321195     0.876426     0.676295    Uiso  ? C
   C946       1.0     0.321906     0.120952     0.677468    Uiso  ? C
   C947       1.0     0.339047     0.877143     0.659846    Uiso  ? C
   C948       1.0     0.337699     0.121028     0.660461    Uiso  ? C
   H623       1.0     0.345746     0.862210     0.651697    Uiso  ? H
   N36        1.0     0.346423     0.102013     0.651778    Uiso  ? N
   H624       1.0     0.343560     0.136692     0.652389    Uiso  ? H
   H625       1.0     0.279654     0.875367     0.239375    Uiso  ? H
   N37        1.0     0.258511     0.897896     0.258696    Uiso  ? N
   H626       1.0     0.242955     0.125435     0.280119    Uiso  ? H
   C949       1.0     0.277861     0.885629     0.254386    Uiso  ? C
   C950       1.0     0.256400     0.114062     0.277570    Uiso  ? C
   C951       1.0     0.295719     0.884786     0.270362    Uiso  ? C
   C952       1.0     0.272882     0.111991     0.295098    Uiso  ? C
   H627       1.0     0.311206     0.874224     0.267341    Uiso  ? H
   H628       1.0     0.269017     0.120617     0.310124    Uiso  ? H
   C953       1.0     0.291437     0.894975     0.292066    Uiso  ? C
   C954       1.0     0.310239     0.894297     0.309205    Uiso  ? C
   H629       1.0     0.319303     0.859047     0.304360    Uiso  ? H
   H630       1.0     0.309093     0.133817     0.319047    Uiso  ? H
   C955       1.0     0.322351     0.873980     0.314062    Uiso  ? C
   C956       1.0     0.316235     0.117489     0.322309    Uiso  ? C
   C957       1.0     0.340288     0.874500     0.328869    Uiso  ? C
   C958       1.0     0.333328     0.116635     0.338587    Uiso  ? C
   H631       1.0     0.350758     0.859856     0.331622    Uiso  ? H
   N38        1.0     0.343927     0.893232     0.342160    Uiso  ? N
   H632       1.0     0.338368     0.132202     0.346526    Uiso  ? H
   H633       1.0     0.760370     0.878901     0.278067    Uiso  ? H
   N39        1.0     0.738628     0.895099     0.254052    Uiso  ? N
   H634       1.0     0.715309     0.113793     0.231833    Uiso  ? H
   C959       1.0     0.743804     0.885062     0.274603    Uiso  ? C
   C960       1.0     0.719057     0.107455     0.249095    Uiso  ? C
   C961       1.0     0.726770     0.883951     0.291054    Uiso  ? C
   C962       1.0     0.701221     0.104290     0.264364    Uiso  ? C
   H635       1.0     0.730271     0.874637     0.305585    Uiso  ? H
   H636       1.0     0.684055     0.109934     0.258236    Uiso  ? H
   C963       1.0     0.704799     0.891326     0.286177    Uiso  ? C
   C964       1.0     0.686382     0.893235     0.304509    Uiso  ? C
   H637       1.0     0.706149     0.876227     0.331224    Uiso  ? H
   H638       1.0     0.660705     0.115735     0.285455    Uiso  ? H
   C965       1.0     0.690540     0.884588     0.326206    Uiso  ? C
   C966       1.0     0.666755     0.109649     0.301919    Uiso  ? C
   C967       1.0     0.674254     0.885927     0.343530    Uiso  ? C
   C968       1.0     0.650588     0.110377     0.319809    Uiso  ? C
   H639       1.0     0.676868     0.879076     0.360196    Uiso  ? H
   N40        1.0     0.654380     0.896504     0.340367    Uiso  ? N
   H640       1.0     0.635809     0.118653     0.318299    Uiso  ? H
   H641       1.0     0.873843     0.275519     0.755309    Uiso  ? H
   N41        1.0     0.897907     0.255609     0.738722    Uiso  ? N
   H642       1.0     0.126458     0.237473     0.720411    Uiso  ? H
   C969       1.0     0.885568     0.273487     0.740711    Uiso  ? C
   C970       1.0     0.115703     0.251240     0.720503    Uiso  ? C
   C971       1.0     0.884313     0.289369     0.722741    Uiso  ? C
   C972       1.0     0.117242     0.267780     0.703352    Uiso  ? C
   H643       1.0     0.871993     0.303691     0.723469    Uiso  ? H
   H644       1.0     0.130190     0.266777     0.690141    Uiso  ? H
   C973       1.0     0.103226     0.287180     0.704540    Uiso  ? C
   C974       1.0     0.103190     0.305225     0.686205    Uiso  ? C
   H645       1.0     0.894249     0.334403     0.709318    Uiso  ? H
   H646       1.0     0.107356     0.282205     0.657520    Uiso  ? H
   C975       1.0     0.896514     0.328433     0.691123    Uiso  ? C
   C976       1.0     0.105854     0.299506     0.662709    Uiso  ? C
   C977       1.0     0.896377     0.344112     0.673798    Uiso  ? C
   C978       1.0     0.105296     0.315836     0.646254    Uiso  ? C
   H647       1.0     0.891843     0.361031     0.678070    Uiso  ? H
   N42        1.0     0.103070     0.338070     0.651485    Uiso  ? N
   H648       1.0     0.109954     0.311967     0.629207    Uiso  ? H
   H649       1.0     0.883321     0.750665     0.719132    Uiso  ? H
   N43        1.0     0.112585     0.737254     0.740095    Uiso  ? N
   H650       1.0     0.139113     0.718646     0.756031    Uiso  ? H
   C979       1.0     0.895458     0.738234     0.721041    Uiso  ? C
   C980       1.0     0.126451     0.719211     0.742727    Uiso  ? C
   C981       1.0     0.896037     0.721007     0.704305    Uiso  ? C
   C982       1.0     0.127224     0.701425     0.725668    Uiso  ? C
   H651       1.0     0.887090     0.723347     0.689658    Uiso  ? H
   H652       1.0     0.139655     0.688131     0.727535    Uiso  ? H
   C983       1.0     0.112199     0.701199     0.707512    Uiso  ? C
   C984       1.0     0.110375     0.682081     0.691290    Uiso  ? C
   H653       1.0     0.115382     0.703965     0.660561    Uiso  ? H
   H654       1.0     0.102356     0.657065     0.715255    Uiso  ? H
   C985       1.0     0.111573     0.687590     0.667449    Uiso  ? C
   C986       1.0     0.105647     0.659745     0.698004    Uiso  ? C
   C987       1.0     0.108722     0.669890     0.652423    Uiso  ? C
   C988       1.0     0.102806     0.643547     0.682030    Uiso  ? C
   H655       1.0     0.108659     0.673576     0.634194    Uiso  ? H
   N44        1.0     0.104520     0.648358     0.659296    Uiso  ? N
   H656       1.0     0.896910     0.625719     0.686811    Uiso  ? H
   H657       1.0     0.114620     0.767057     0.290417    Uiso  ? H
   N45        1.0     0.105306     0.744681     0.262969    Uiso  ? N
   H658       1.0     0.894581     0.720066     0.237493    Uiso  ? H
   C989       1.0     0.109489     0.750000     0.285000    Uiso  ? C
   C990       1.0     0.895747     0.723514     0.255808    Uiso  ? C
   C991       1.0     0.106567     0.732458     0.302027    Uiso  ? C
   C992       1.0     0.893301     0.705944     0.272585    Uiso  ? C
   H659       1.0     0.109565     0.737445     0.319420    Uiso  ? H
   H660       1.0     0.886401     0.689111     0.266736    Uiso  ? H
   C993       1.0     0.897443     0.709848     0.295455    Uiso  ? C
   C994       1.0     0.894120     0.690754     0.312103    Uiso  ? C
   H661       1.0     0.881664     0.709631     0.340909    Uiso  ? H
   H662       1.0     0.111225     0.664642     0.287843    Uiso  ? H
   C995       1.0     0.885742     0.693896     0.334370    Uiso  ? C
   C996       1.0     0.104081     0.667766     0.305177    Uiso  ? C
   C997       1.0     0.885040     0.675088     0.349267    Uiso  ? C
   C998       1.0     0.103113     0.650944     0.321077    Uiso  ? C
   H663       1.0     0.881170     0.676955     0.366660    Uiso  ? H
   N46        1.0     0.892653     0.654495     0.343027    Uiso  ? N
   H664       1.0     0.107696     0.635103     0.314922    Uiso  ? H
   H665       1.0     0.106323     0.288732     0.237502    Uiso  ? H
   N47        1.0     0.107529     0.260154     0.259081    Uiso  ? N
   H666       1.0     0.897124     0.235332     0.284495    Uiso  ? H
   C999       1.0     0.109185     0.282401     0.254227    Uiso  ? C
   C1000      1.0     0.103431     0.253342     0.280540    Uiso  ? C
   C1001      1.0     0.108328     0.298406     0.271316    Uiso  ? C
   C1002      1.0     0.103037     0.268982     0.298733    Uiso  ? C
   H667       1.0     0.108242     0.315829     0.266387    Uiso  ? H
   H668       1.0     0.893724     0.264111     0.315203    Uiso  ? H
   C1003      1.0     0.105515     0.292839     0.294192    Uiso  ? C
   C1004      1.0     0.897726     0.311055     0.312006    Uiso  ? C
   H669       1.0     0.880240     0.335737     0.290783    Uiso  ? H
   H670       1.0     0.122021     0.296198     0.337664    Uiso  ? H
   C1005      1.0     0.888427     0.332462     0.306274    Uiso  ? C
   C1006      1.0     0.109221     0.307845     0.333796    Uiso  ? C
   C1007      1.0     0.887259     0.348544     0.322998    Uiso  ? C
   C1008      1.0     0.104149     0.324239     0.350031    Uiso  ? C
   H671       1.0     0.880479     0.364906     0.319469    Uiso  ? H
   N48        1.0     0.893086     0.345035     0.344500    Uiso  ? N
   H672       1.0     0.111352     0.321866     0.366966    Uiso  ? H
